*Heading
** Job name: Z_Z_Triangle_1 Model name: Box_Explicit_Compressed-20_Correct_Stiff_3D
** Generated by: Abaqus/CAE 2022
*Preprint, echo=NO, model=NO, history=NO, contact=NO
**
** PARTS
**
*Part, name=Part-1
*Node
      1,         32.5,         32.5,           0.
      2,         32.5,          65.,           0.
      3,           0.,          65.,           0.
      4,           0.,         32.5,           0.
      5,          65.,         32.5,           0.
      6,          65.,          65.,           0.
      7,         32.5,           0.,           0.
      8,           0.,           0.,           0.
      9,          65.,           0.,           0.
     10,         32.5,          39.,           0.
     11,         32.5,         45.5,           0.
     12,         32.5,          52.,           0.
     13,         32.5,         58.5,           0.
     14,          26.,          65.,           0.
     15,         19.5,          65.,           0.
     16,          13.,          65.,           0.
     17,          6.5,          65.,           0.
     18,           0.,         58.5,           0.
     19,           0.,          52.,           0.
     20,           0.,         45.5,           0.
** ... 101 like lines cut
*Element, type=S4
 1,  1, 10, 58, 25
 2, 10, 11, 59, 58
 3, 11, 12, 60, 59
 4, 12, 13, 61, 60
 5, 13,  2, 14, 61
 6, 25, 58, 62, 24
 7, 58, 59, 63, 62
 8, 59, 60, 64, 63
 9, 60, 61, 65, 64
10, 61, 14, 15, 65
11, 24, 62, 66, 23
12, 62, 63, 67, 66
13, 63, 64, 68, 67
14, 64, 65, 69, 68
15, 65, 15, 16, 69
16, 23, 66, 70, 22
17, 66, 67, 71, 70
18, 67, 68, 72, 71
19, 68, 69, 73, 72
20, 69, 16, 17, 73
** ... 80 like lines cut
*Nset, nset=Set-2, generate
   1,  121,    1
*Elset, elset=Set-2, generate
   1,  100,    1
** Section: Paper_Shell
*Shell Section, elset=Set-2, material=Paper_Material
0.6, 5
*End Part
**  
*Part, name=Part-2
*Node
      1,         32.5,         32.5,           0.
      2,         32.5,          65.,           0.
      3,           0.,          65.,           0.
      4,           0.,         32.5,           0.
      5,          65.,         32.5,           0.
      6,          65.,          65.,           0.
      7,         32.5,           0.,           0.
      8,           0.,           0.,           0.
      9,          65.,           0.,           0.
     10,         32.5,          39.,           0.
     11,         32.5,         45.5,           0.
     12,         32.5,          52.,           0.
     13,         32.5,         58.5,           0.
     14,          26.,          65.,           0.
     15,         19.5,          65.,           0.
     16,          13.,          65.,           0.
     17,          6.5,          65.,           0.
     18,           0.,         58.5,           0.
     19,           0.,          52.,           0.
     20,           0.,         45.5,           0.
** ... 101 like lines cut
*Element, type=S4R
 1,  1, 10, 58, 25
 2, 10, 11, 59, 58
 3, 11, 12, 60, 59
 4, 12, 13, 61, 60
 5, 13,  2, 14, 61
 6, 25, 58, 62, 24
 7, 58, 59, 63, 62
 8, 59, 60, 64, 63
 9, 60, 61, 65, 64
10, 61, 14, 15, 65
11, 24, 62, 66, 23
12, 62, 63, 67, 66
13, 63, 64, 68, 67
14, 64, 65, 69, 68
15, 65, 15, 16, 69
16, 23, 66, 70, 22
17, 66, 67, 71, 70
18, 67, 68, 72, 71
19, 68, 69, 73, 72
20, 69, 16, 17, 73
** ... 80 like lines cut
*Nset, nset=Set-2, generate
   1,  121,    1
*Elset, elset=Set-2, generate
   1,  100,    1
** Section: Paper_Shell
*Shell Section, elset=Set-2, material=Paper_Material
0.6, 5
*End Part
**  
*Part, name=Part-3
*End Part
**  
*Part, name=Triangle
*Node
      1,         32.5,          65.,           0.
      2,           0.,          65.,           0.
      3,   8.66666698,   56.3333321,           0.
      4,   32.5014877,    60.495388,           0.
      5,         32.5,         32.5,           0.
      6,   56.3333321,   56.3333321,           0.
      7,          65.,          65.,           0.
      8,    29.545454,          65.,           0.
      9,     26.59091,          65.,           0.
     10,    23.636364,          65.,           0.
     11,    20.681818,          65.,           0.
     12,    17.727272,          65.,           0.
     13,    14.772727,          65.,           0.
     14,    11.818182,          65.,           0.
     15,   8.86363602,          65.,           0.
     16,     5.909091,          65.,           0.
     17,    2.9545455,          65.,           0.
     18,   2.16666675,   62.8333321,           0.
     19,   4.33333349,   60.6666679,           0.
     20,          6.5,         58.5,           0.
** ... 216 like lines cut
*Element, type=S4
  1,   1,   8,  77,  33
  2,   8,   9,  78,  77
  3,   9,  10,  79,  78
  4,  10,  11,  80,  79
  5,  11,  12,  81,  80
  6,  12,  13,  82,  81
  7,  13,  14,  83,  82
  8,  14,  15,  84,  83
  9,  15,  16,  85,  84
 10,  16,  17,  86,  85
 11,  17,   2,  18,  86
 12,  33,  77,  87,  32
 13,  77,  78,  88,  87
 14,  78,  79,  89,  88
 15,  79,  80,  90,  89
 16,  80,  81,  91,  90
 17,  81,  82,  92,  91
 18,  82,  83,  93,  92
 19,  83,  84,  94,  93
 20,  84,  85,  95,  94
** ... 189 like lines cut
*Nset, nset=Set-2, generate
   1,  236,    1
*Elset, elset=Set-2, generate
   1,  209,    1
** Section: Paper_Shell
*Shell Section, elset=Set-2, material=Paper_Material
0.6, 5
*End Part
**  
**
** ASSEMBLY
**
*Assembly, name=Assembly
**  
*Instance, name=Part-1-1, part=Part-1
400.987496054206,         400., 10.2871315483505
400.987496054206,         400., 10.2871315483505, 400.987496054206, 400.999999988425, 10.2871315483505, 10.0000000861189
*End Instance
**  
*Instance, name=Part-2-1, part=Part-2
        465.,         400.,          -1.
        465.,         400.,          -1.,         465., 399.000000011575,          -1., 10.0000000861189
*End Instance
**  
*Instance, name=Part-1-2, part=Part-1
400.987495743803,         400., 10.287132396917
400.987495743803,         400., 10.287132396917, 400.987495743803, 399.000000011575, 10.287132396917, 10.0000000861189
*End Instance
**  
*Instance, name=Part-1-3, part=Part-1
529.012504256197,         400., 10.287132396917
529.012504256197,         400., 10.287132396917, 529.012504256197, 400.999999998098, 10.287132396917, 189.999999952031
*End Instance
**  
*Instance, name=Part-3-1, part=Part-3
        -35.,        -67.5,          -1.
*Node
      1,           0.,           0.,           0.
      2,         100.,           0.,           0.
      3,         200.,           0.,           0.
      4,         300.,           0.,           0.
      5,         400.,           0.,           0.
      6,         500.,           0.,           0.
      7,         600.,           0.,           0.
      8,         700.,           0.,           0.
      9,         800.,           0.,           0.
     10,         900.,           0.,           0.
     11,        1000.,           0.,           0.
     12,           0.,         100.,           0.
     13,         100.,         100.,           0.
     14,         200.,         100.,           0.
     15,         300.,         100.,           0.
     16,         400.,         100.,           0.
     17,         500.,         100.,           0.
     18,         600.,         100.,           0.
     19,         700.,         100.,           0.
     20,         800.,         100.,           0.
** ... 101 like lines cut
*Element, type=R3D4
  1,   1,   2,  13,  12
  2,   2,   3,  14,  13
  3,   3,   4,  15,  14
  4,   4,   5,  16,  15
  5,   5,   6,  17,  16
  6,   6,   7,  18,  17
  7,   7,   8,  19,  18
  8,   8,   9,  20,  19
  9,   9,  10,  21,  20
 10,  10,  11,  22,  21
 11,  12,  13,  24,  23
 12,  13,  14,  25,  24
 13,  14,  15,  26,  25
 14,  15,  16,  27,  26
 15,  16,  17,  28,  27
 16,  17,  18,  29,  28
 17,  18,  19,  30,  29
 18,  19,  20,  31,  30
 19,  20,  21,  32,  31
 20,  21,  22,  33,  32
** ... 80 like lines cut
*Node
    122,           0.,           0.,           0.
*Nset, nset=Part-3-1-RefPt_, internal
122, 
*Elset, elset=Part-3-1, generate
   1,  100,    1
*End Instance
**  
*Instance, name=Triangle-1, part=Triangle
402.947485159222, 400.987496511023, 21.4027871646108
402.947485159222, 400.987496511023, 21.4027871646108, 402.241727622265, 401.693254108542, 21.4645328987944, 14.1331494095586
*End Instance
**  
*Instance, name=Triangle-2, part=Triangle
402.947485072229, 400.987496646121, -0.82852215576095
402.947485072229, 400.987496646121, -0.82852215576095, 403.653242609186, 400.281739048601, -0.766776421577394, 14.1331494095586
*End Instance
**  
*Element, type=CONN3D2
1, Part-1-3.4, Part-1-2.4
*Connector Section, elset=Wire-1-Set-3, behavior=ConnSect-2
Axial,
"Datum csys-2",
*Nset, nset=Hinge-1-1, instance=Part-2-1
  3,  4,  8, 18, 19, 20, 21, 42, 43, 44, 45
*Elset, elset=Hinge-1-1, instance=Part-2-1
 21, 22, 23, 24, 25, 71, 72, 73, 74, 75
*Nset, nset=Hinge-1-2, instance=Part-1-1
  5,  6,  9, 30, 31, 32, 33, 54, 55, 56, 57
*Elset, elset=Hinge-1-2, instance=Part-1-1
  46,  47,  48,  49,  50,  96,  97,  98,  99, 100
*Nset, nset=Hinge-2-1, instance=Part-2-1
  5,  6,  9, 30, 31, 32, 33, 54, 55, 56, 57
*Elset, elset=Hinge-2-1, instance=Part-2-1
  46,  47,  48,  49,  50,  96,  97,  98,  99, 100
*Nset, nset=Hinge-2-3, instance=Part-1-3
  3,  4,  8, 18, 19, 20, 21, 42, 43, 44, 45
*Elset, elset=Hinge-2-3, instance=Part-1-3
 21, 22, 23, 24, 25, 71, 72, 73, 74, 75
*Nset, nset=Hinge-3-2, instance=Part-1-1
  3,  4,  8, 18, 19, 20, 21, 42, 43, 44, 45
*Elset, elset=Hinge-3-2, instance=Part-1-1
 21, 22, 23, 24, 25, 71, 72, 73, 74, 75
*Nset, nset=Hinge-3-4, instance=Part-1-2
  3,  4,  8, 18, 19, 20, 21, 42, 43, 44, 45
*Elset, elset=Hinge-3-4, instance=Part-1-2
 21, 22, 23, 24, 25, 71, 72, 73, 74, 75
*Nset, nset=Hinge-4-3, instance=Part-1-3
  5,  6,  9, 30, 31, 32, 33, 54, 55, 56, 57
*Elset, elset=Hinge-4-3, instance=Part-1-3
  46,  47,  48,  49,  50,  96,  97,  98,  99, 100
*Nset, nset=Hinge-4-4, instance=Part-1-2
  5,  6,  9, 30, 31, 32, 33, 54, 55, 56, 57
*Elset, elset=Hinge-4-4, instance=Part-1-2
  46,  47,  48,  49,  50,  96,  97,  98,  99, 100
*Nset, nset=Hinge_Triangle_I_1, instance=Part-1-1
  2,  3,  6, 14, 15, 16, 17, 34, 35, 36, 37
*Elset, elset=Hinge_Triangle_I_1, instance=Part-1-1
  5, 10, 15, 20, 25, 26, 31, 36, 41, 46
*Nset, nset=Hinge_Triangle_I_2, instance=Triangle-2
  1,  2,  7,  8,  9, 10, 11, 12, 13, 14, 15, 16, 17, 67, 68, 69
 70, 71, 72, 73, 74, 75, 76
*Elset, elset=Hinge_Triangle_I_2, instance=Triangle-2
   1,   2,   3,   4,   5,   6,   7,   8,   9,  10,  11, 169, 173, 177, 181, 185
 189, 193, 197, 201, 205, 209
*Nset, nset=Hinge_Triangle_I_I_1, instance=Triangle-2
  2,  3,  5, 18, 19, 20, 34, 35, 36, 37, 38, 39, 40, 41, 42, 43
*Elset, elset=Hinge_Triangle_I_I_1, instance=Triangle-2
 11, 22, 33, 44, 45, 46, 47, 48, 49, 50, 51, 52, 53, 54, 55
*Nset, nset=Hinge_Triangle_I_I_2, instance=Triangle-1
  2,  3,  5, 18, 19, 20, 34, 35, 36, 37, 38, 39, 40, 41, 42, 43
*Elset, elset=Hinge_Triangle_I_I_2, instance=Triangle-1
 11, 22, 33, 44, 45, 46, 47, 48, 49, 50, 51, 52, 53, 54, 55
*Nset, nset=Hinge_Triangle_O_1, instance=Triangle-1
  1,  2,  7,  8,  9, 10, 11, 12, 13, 14, 15, 16, 17, 67, 68, 69
 70, 71, 72, 73, 74, 75, 76
*Elset, elset=Hinge_Triangle_O_1, instance=Triangle-1
   1,   2,   3,   4,   5,   6,   7,   8,   9,  10,  11, 169, 173, 177, 181, 185
 189, 193, 197, 201, 205, 209
*Nset, nset=Hinge_Triangle_O_3, instance=Triangle-2
  1,  2,  7,  8,  9, 10, 11, 12, 13, 14, 15, 16, 17, 67, 68, 69
 70, 71, 72, 73, 74, 75, 76
*Elset, elset=Hinge_Triangle_O_3, instance=Triangle-2
   1,   2,   3,   4,   5,   6,   7,   8,   9,  10,  11, 169, 173, 177, 181, 185
 189, 193, 197, 201, 205, 209
*Nset, nset=Node, instance=Part-1-3
 6,
*Nset, nset=Set-42, instance=Part-3-1, generate
   1,  121,    1
*Elset, elset=Set-42, instance=Part-3-1, generate
   1,  100,    1
*Nset, nset=Set-45, instance=Part-3-1
 122,
*Nset, nset=Set-46, instance=Part-2-1
  3,  4,  8, 18, 19, 20, 21, 42, 43, 44, 45
*Elset, elset=Set-46, instance=Part-2-1
 21, 22, 23, 24, 25, 71, 72, 73, 74, 75
*Nset, nset=Vertex, instance=Part-1-3
 6,
*Nset, nset=Wire-1-Set-3, instance=Part-1-3
 4,
*Nset, nset=Wire-1-Set-3, instance=Part-1-2
 4,
*Elset, elset=Wire-1-Set-3
 1,
*Surface, type=NODE, name=Hinge-1-1_CNS_, internal
Hinge-1-1, 1.
*Surface, type=NODE, name=Hinge-1-2_CNS_, internal
Hinge-1-2, 1.
*Surface, type=NODE, name=Hinge-2-1_CNS_, internal
Hinge-2-1, 1.
*Surface, type=NODE, name=Hinge-2-3_CNS_, internal
Hinge-2-3, 1.
*Surface, type=NODE, name=Hinge-3-2_CNS_, internal
Hinge-3-2, 1.
*Surface, type=NODE, name=Hinge-3-4_CNS_, internal
Hinge-3-4, 1.
*Surface, type=NODE, name=Hinge-4-3_CNS_, internal
Hinge-4-3, 1.
*Surface, type=NODE, name=Hinge-4-4_CNS_, internal
Hinge-4-4, 1.
*Surface, type=NODE, name=Hinge_Triangle_O_1_CNS_, internal
Hinge_Triangle_O_1, 1.
*Surface, type=NODE, name=Hinge_Triangle_I_1_CNS_, internal
Hinge_Triangle_I_1, 1.
*Surface, type=NODE, name=Hinge_Triangle_O_3_CNS_, internal
Hinge_Triangle_O_3, 1.
*Surface, type=NODE, name=Hinge_Triangle_I_2_CNS_, internal
Hinge_Triangle_I_2, 1.
*Surface, type=NODE, name=Hinge_Triangle_I_I_1_CNS_, internal
Hinge_Triangle_I_I_1, 1.
*Surface, type=NODE, name=Hinge_Triangle_I_I_2_CNS_, internal
Hinge_Triangle_I_I_2, 1.
*Rigid Body, ref node=Part-3-1.Part-3-1-RefPt_, elset=Part-3-1.Part-3-1
*Orientation, name="Datum csys-2"
         -1.,           0.,           0.,           0.,           1.,           0.
1, 0.
** Constraint: Hinge1
*Tie, name=Hinge1, adjust=yes, no rotation
Hinge-1-2_CNS_, Hinge-1-1_CNS_
** Constraint: Hinge2
*Tie, name=Hinge2, adjust=yes, no rotation
Hinge-2-3_CNS_, Hinge-2-1_CNS_
** Constraint: Hinge3
*Tie, name=Hinge3, adjust=yes, no rotation
Hinge-3-4_CNS_, Hinge-3-2_CNS_
** Constraint: Hinge4
*Tie, name=Hinge4, adjust=yes, no rotation
Hinge-4-4_CNS_, Hinge-4-3_CNS_
** Constraint: Hinge5_T
*Tie, name=Hinge5_T, adjust=yes, no rotation
Hinge_Triangle_I_1_CNS_, Hinge_Triangle_O_1_CNS_
** Constraint: Hinge_6_T
*Tie, name=Hinge_6_T, adjust=yes, no rotation
Hinge_Triangle_I_2_CNS_, Hinge_Triangle_O_3_CNS_
** Constraint: Hinge_7_T_I_I
*Tie, name=Hinge_7_T_I_I, adjust=yes, no rotation
Hinge_Triangle_I_I_2_CNS_, Hinge_Triangle_I_I_1_CNS_
*End Assembly
*Connector Behavior, name=ConnSect-2
*Connector Constitutive Reference
90., , , , , 
*Connector Elasticity, component=1
 0.0077,
*Amplitude, name=Amp-1, definition=SMOOTH STEP
             0.,              0.,              1.,              1.
*Amplitude, name=Amp-2, definition=EQUALLY SPACED, fixed interval=1.
             0.,              1.
** 
** MATERIALS
** 
*Material, name=Paper_Material
*Density
 2e-10,
*Elastic
2400., 0.3
** 
** INTERACTION PROPERTIES
** 
*Surface Interaction, name=IntProp-1
*Friction, rough
** 
** BOUNDARY CONDITIONS
** 
** Name: BC-3 Type: Symmetry/Antisymmetry/Encastre
*Boundary
Set-42, ENCASTRE
** Name: BC-4 Type: Symmetry/Antisymmetry/Encastre
*Boundary
Set-45, ENCASTRE
** ----------------------------------------------------------------
** 
** STEP: Step-1
** 
*Step, name=Step-1, nlgeom=YES
*Dynamic, Explicit
, 2.5
*Bulk Viscosity
0.06, 1.2
** 
** LOADS
** 
** Name: Load-1   Type: Gravity
*Dload
, GRAV, 9810., 0., 0., -1.
** 
** INTERACTIONS
** 
** Interaction: Int-1
*Contact, op=NEW
*Contact Inclusions, ALL EXTERIOR
*Contact Property Assignment
 ,  , IntProp-1
** 
** OUTPUT REQUESTS
** 
*Restart, write, number interval=1, time marks=NO
** 
** FIELD OUTPUT: F-Output-1
** 
*Output, field, variable=PRESELECT, number interval=50
** 
** HISTORY OUTPUT: H-Output-1
** 
*Output, history, variable=PRESELECT
** 
** HISTORY OUTPUT: U1_Node
** 
*Output, history, time interval=0.00625
*Node Output, nset=Node
A3, AT, U3
*End Step
