 Abaqus/Standard 2022                  DATE 19-Dez-2023 TIME 15:30:39
 SUMMARY OF JOB INFORMATION:
 STEP  INC ATT SEVERE EQUIL TOTAL  TOTAL      STEP       INC OF       DOF    IF
               DISCON ITERS ITERS  TIME/    TIME/LPF    TIME/LPF    MONITOR RIKS
               ITERS               FREQ
   1     1   1U    1     1     2  0.00       0.00       0.1000    
   1     1   2     2     2     4  0.0250     0.0250     0.02500   
   1     2   1     0     2     2  0.0500     0.0500     0.02500   
   1     3   1     0     1     1  0.0875     0.0875     0.03750   
   1     4   1     0     1     1  0.144      0.144      0.05625   
   1     5   1     0     1     1  0.228      0.228      0.08438   
   1     6   1     0     1     1  0.328      0.328      0.1000    
   1     7   1     0     2     2  0.428      0.428      0.1000    
   1     8   1     0     2     2  0.528      0.528      0.1000    
   1     9   1     0     2     2  0.628      0.628      0.1000    
   1    10   1     0     2     2  0.728      0.728      0.1000    
   1    11   1     0     2     2  0.828      0.828      0.1000    
   1    12   1     2     3     5  0.928      0.928      0.1000    
   1    13   1     1     2     3  1.00       1.00       0.07188   
   2     1   1U    0     1     1  1.00       0.00       1.000     
   2     1   2U    0     1     1  1.00       0.00       0.2500    
   2     1   3     2     1     3  1.06       0.0625     0.06250   
   2     2   1U    2     1     3  1.06       0.0625     0.06250   
   2     2   2U    0     1     1  1.06       0.0625     0.01562   
   2     2   3     1     1     2  1.07       0.0664     0.003906  
   2     3   1     0     1     1  1.07       0.0723     0.005859  
   2     4   1     0     1     1  1.08       0.0811     0.008789  
   2     5   1     0     1     1  1.09       0.0942     0.01318   
   2     6   1     0     1     1  1.11       0.114      0.01978   
   2     7   1     0     1     1  1.14       0.144      0.02966   
   2     8   1     0     1     1  1.19       0.188      0.04449   
   2     9   1     0     1     1  1.25       0.255      0.06674   
   2    10   1     0     1     1  1.36       0.355      0.1001    
   2    11   1U    0     1     1  1.36       0.355      0.1502    
   2    11   2     0     1     1  1.39       0.393      0.03754   
   2    12   1     0     1     1  1.45       0.449      0.05631   
   2    13   1U    0     1     1  1.45       0.449      0.08447   
   2    13   2     0     1     1  1.47       0.470      0.02112   
   2    14   1U    4     1     5  1.47       0.470      0.03168   
   2    14   2     0     1     1  1.48       0.478      0.007919  
   2    15   1U    4     3     7  1.48       0.478      0.01188   
   2    15   2     1     2     3  1.48       0.481      0.002970  
   2    16   1     0     2     2  1.49       0.485      0.004454  
   2    17   1     0     1     1  1.49       0.492      0.006682  
   2    18   1     1     1     2  1.50       0.502      0.01002   
   2    19   1     0     1     1  1.52       0.517      0.01503   
   2    20   1     0     1     1  1.54       0.540      0.02255   
   2    21   1     0     1     1  1.57       0.573      0.03383   
   2    22   1     0     1     1  1.62       0.624      0.05074   
   2    23   1U    0     1     1  1.62       0.624      0.07611   
   2    23   2     0     1     1  1.64       0.643      0.01903   
   2    24   1     0     1     1  1.67       0.672      0.02854   
   2    25   1U    1     1     2  1.67       0.672      0.04281   
   2    25   2     3     2     5  1.68       0.682      0.01070   
   2    26   1     0     2     2  1.70       0.699      0.01605   
   2    27   1     1     1     2  1.72       0.723      0.02408   
   2    28   1     0     1     1  1.76       0.759      0.03612   
   2    29   1     0     1     1  1.81       0.813      0.05418   
   2    30   1U    0     1     1  1.81       0.813      0.08127   
   2    30   2U   12     1    13  1.81       0.813      0.02032   
   2    30   3     0     1     1  1.82       0.818      0.005080  
   2    31   1     1     2     3  1.83       0.826      0.007620  
   2    32   1     0     2     2  1.84       0.837      0.01143   
   2    33   1     1     1     2  1.85       0.854      0.01714   
   2    34   1     0     1     1  1.88       0.880      0.02572   
   2    35   1     0     1     1  1.92       0.918      0.03857   
   2    36   1U    1     1     2  1.92       0.918      0.05786   
   2    36   2     1     2     3  1.93       0.933      0.01447   
   2    37   1     0     2     2  1.95       0.955      0.02170   
   2    38   1     1     1     2  1.99       0.987      0.03255   
   2    39   1     0     1     1  2.00       1.00       0.01282   
                          
 THE ANALYSIS HAS COMPLETED SUCCESSFULLY
