1

   Abaqus 2022                                  Date 19-Dez-2023   Time 14:49:05
   For use by MONTANUNIVERSITAT LEOBEN under license from Dassault Systemes or its subsidiary.

                                                                                 
                                                                                 
 STEP    1     INCREMENT     1     STEP TIME    0.00    


                        S T E P       1     D Y N A M I C   A N A L Y S I S - I M P L I C I T  I N T E G R A T I O N


                                                                                          

          DYNAMIC APPLICATION PACKED SCHEME IS                 TRANSIENT FIDELITY  
          HILBER-HUGHES-TAYLOR (HHT) TIME INTEGRATOR IS USED

     AUTOMATIC TIME CONTROL WITH -
          A SUGGESTED INITIAL TIME INCREMENT OF                 1.00    
          AND A TOTAL TIME PERIOD OF                            1.00    
          THE MINIMUM TIME INCREMENT ALLOWED IS                1.000E-10
          THE MAXIMUM TIME INCREMENT ALLOWED IS                 1.00    
          SCALE FACTOR ON TIME AVERAGE FORCE FOR HALF-
           -INCREMENT RESIDUAL COMPUTATIONS IS                 1.000E+03

          HILBER-HUGHES-TAYLOR METHOD PARAMETERS:  ALPHA   IS  -5.000000E-02
                                                   BETA    IS   0.275625    
                                                   GAMMA   IS   0.550000    
          SINGULAR MASS TREATMENT TYPE IS                     ERROR
          CONSERVATIVE TIME INCREMENTATION IS USED
          STEP AMPLITUDE IS                                    STEP

 CONVERGENCE TOLERANCE PARAMETERS FOR FORCE    
     CRITERION FOR RESIDUAL FORCE     FOR A NONLINEAR PROBLEM          5.000E-03
     CRITERION FOR DISP.    CORRECTION IN A NONLINEAR PROBLEM          1.000E-02
     INITIAL VALUE OF TIME AVERAGE FORCE                               1.000E-02
     AVERAGE FORCE     IS TIME AVERAGE FORCE    
     ALTERNATE CRIT. FOR RESIDUAL FORCE     FOR A NONLINEAR PROBLEM    2.000E-02
     CRITERION FOR ZERO FORCE     RELATIVE TO TIME AVRG. FORCE         1.000E-05
     CRITERION FOR RESIDUAL FORCE     WHEN THERE IS ZERO FLUX          1.000E-05
     CRITERION FOR DISP.    CORRECTION WHEN THERE IS ZERO FLUX         1.000E-03
     CRITERION FOR RESIDUAL FORCE     FOR A LINEAR INCREMENT           1.000E-08
     FIELD CONVERSION RATIO                                             1.00    
     CRITERION FOR ZERO FORCE     REL. TO TIME AVRG. MAX. FORCE        1.000E-05
     CRITERION FOR ZERO DISP.    RELATIVE TO CHARACTERISTIC LENGTH     1.000E-08

 CONVERGENCE TOLERANCE PARAMETERS FOR MOMENT   
     CRITERION FOR RESIDUAL MOMENT    FOR A NONLINEAR PROBLEM          5.000E-03
     CRITERION FOR ROTATION CORRECTION IN A NONLINEAR PROBLEM          1.000E-02
     INITIAL VALUE OF TIME AVERAGE MOMENT                              1.000E-02
     AVERAGE MOMENT    IS TIME AVERAGE MOMENT   
     ALTERNATE CRIT. FOR RESIDUAL MOMENT    FOR A NONLINEAR PROBLEM    2.000E-02
     CRITERION FOR ZERO MOMENT    RELATIVE TO TIME AVRG. MOMENT        1.000E-05
     CRITERION FOR RESIDUAL MOMENT    WHEN THERE IS ZERO FLUX          1.000E-05
     CRITERION FOR ROTATION CORRECTION WHEN THERE IS ZERO FLUX         1.000E-03
     CRITERION FOR RESIDUAL MOMENT    FOR A LINEAR INCREMENT           1.000E-08
     FIELD CONVERSION RATIO                                             1.00    
     CRITERION FOR ZERO MOMENT    REL. TO TIME AVRG. MAX. MOMENT       1.000E-05

     VOLUMETRIC STRAIN COMPATIBILITY TOLERANCE FOR HYBRID SOLIDS       1.000E-05
     AXIAL STRAIN COMPATIBILITY TOLERANCE FOR HYBRID BEAMS             1.000E-05
     TRANS. SHEAR STRAIN COMPATIBILITY TOLERANCE FOR HYBRID BEAMS      1.000E-05
     SOFT CONTACT CONSTRAINT COMPATIBILITY TOLERANCE FOR P>P0          5.000E-03
     SOFT CONTACT CONSTRAINT COMPATIBILITY TOLERANCE FOR P=0.0         0.100    
     CONTACT FORCE ERROR TOLERANCE FOR CONVERT SDI=YES                 1.00    
     DISPLACEMENT COMPATIBILITY TOLERANCE FOR DCOUP ELEMENTS           1.000E-05
     ROTATION COMPATIBILITY TOLERANCE FOR DCOUP ELEMENTS               1.000E-05

 EQUILIBRIUM WILL BE CHECKED FOR SEVERE DISCONTINUITY ITERATIONS

 TIME INCREMENTATION CONTROL PARAMETERS:
     FIRST EQUILIBRIUM ITERATION FOR CONSECUTIVE DIVERGENCE CHECK              4
     EQUILIBRIUM ITERATION AT WHICH LOG. CONVERGENCE RATE CHECK BEGINS         8
     EQUILIBRIUM ITERATION AFTER WHICH ALTERNATE RESIDUAL IS USED              9
     MAXIMUM EQUILIBRIUM ITERATIONS ALLOWED                                   16
     EQUILIBRIUM ITERATION COUNT FOR CUT-BACK IN NEXT INCREMENT               10
     MAXIMUM EQUILIB. ITERS IN TWO INCREMENTS FOR TIME INCREMENT INCREASE      4
     MAXIMUM ITERATIONS FOR SEVERE DISCONTINUITIES                            50
     MAXIMUM ATTEMPTS ALLOWED IN AN INCREMENT                                  5
     MAXIMUM DISCON. ITERS IN TWO INCREMENTS FOR TIME INCREMENT INCREASE      50
     MAXIMUM CONTACT AUGMENTATIONS FOR *SURFACE BEHAVIOR,AUGMENTED LAGRANGE   50
     CONSECUTIVE INCS MEETING TIME INTEG. TOL. FOR TIME INC. INCREASE          3
     CUT-BACK FACTOR AFTER DIVERGENCE                                 0.2500    
     CUT-BACK FACTOR FOR TOO SLOW CONVERGENCE                         0.5000    
     CUT-BACK FACTOR AFTER TOO MANY EQUILIBRIUM ITERATIONS            0.7500    
     CUT-BACK FACTOR AFTER TOO MANY SEVERE DISCONTINUITY ITERATIONS   0.2500    
     CUT-BACK FACTOR AFTER PROBLEMS IN ELEMENT ASSEMBLY               0.2500    
     INCREASE FACTOR AFTER TWO INCREMENTS THAT CONVERGE QUICKLY        1.500    
     MAX. TIME INCREMENT INCREASE FACTOR ALLOWED                       1.500    
     MAX. TIME INCREMENT INCREASE FACTOR ALLOWED (DYNAMICS)            1.250    
     MAX. TIME INCREMENT INCREASE FACTOR ALLOWED (DIFFUSION)           2.000    
     MINIMUM TIME INCREMENT RATIO FOR EXTRAPOLATION TO OCCUR          0.1000    
     CUT-BACK FACTOR WHEN TIME INTEGRATION ACCURACY TOL. EXCEEDED     0.8500    
     MAX. RATIO OF TIME INTEG. MEASURE TO TOL. FOR TIME INC. INCREASE 0.7500    
     INCREASE FACTOR FOR TIME INCREMENT WHEN POSSIBLE                 0.8000    
     MIN. TIME INC. INCREASE FACTOR IN LINEAR TRANSIENT PROBLEMS      0.9500    
     MAX. RATIO OF TIME INCREMENT TO STABILITY LIMIT                   1.000    
     FRACTION OF STABILITY LIMIT FOR NEW TIME INCREMENT               0.9500    
     TIME INCREMENT INCREASE FACTOR BEFORE A TIME POINT                1.000    
     GLOBAL STABILIZATION CONTROL IS NOT USED

          PRINT OF INCREMENT NUMBER, TIME, ETC., EVERY    1  INCREMENTS

     THE MAXIMUM NUMBER OF INCREMENTS IN THIS STEP IS                   10000

          LARGE DISPLACEMENT THEORY WILL BE USED

     VELOCITY-BASED PARABOLIC EXTRAPOLATION WILL BE USED

     CHARACTERISTIC ELEMENT LENGTH      6.50    

     DETAILS REGARDING ACTUAL SOLUTION WAVEFRONT REQUESTED

     DETAILED OUTPUT OF DIAGNOSTICS TO DATABASE REQUESTED

     PRINT OF INCREMENT NUMBER, TIME, ETC., TO THE MESSAGE FILE EVERY     1  INCREMENTS

     ELEMENT OPERATIONS WILL BE CARRIED OUT IN PARALLEL USING   2 THREADS ON 1 DOMAIN

     PARALLEL CONTACT TRACKING ENABLED


     COLLECTING MODEL CONSTRAINT INFORMATION FOR OVERCONSTRAINT CHECKS

     COLLECTING STEP CONSTRAINT INFORMATION FOR OVERCONSTRAINT CHECKS

 ***WARNING: AT LEAST ONE OF THE NODES OF CONNECTOR ELEMENT 1 (ASSEMBLY) DOES 
             NOT HAVE ANY MASS ASSOCIATED WITH IT. THIS COULD LEAD TO EQUATION 
             SOLVER ISSUES (ZERO PIVOTS, NUMERICAL SINGULARITIES, etc.) AND 
             HENCE TO INCORRECT SOLUTIONS WHEN THE CONNECTOR ELEMENT IS 
             ENFORCING KINEMATIC CONSTRAINTS (FROM EITHER INTRINSIC, CONNECTOR 
             STOP/LOCK, or CONNECTOR MOTION). PLEASE ATTACH THE CONNECTOR NODES 
             TO ELEMENTS FOR WHICH MASS IS DEFINED (SUCH AS ELEMENTS TYPE MASS 
             WITH A SMALL MASS) TO RESOLVE THE PROBLEM.

 ***WARNING: AT LEAST ONE OF THE NODES OF CONNECTOR ELEMENT 1 (ASSEMBLY) DOES 
             NOT HAVE ANY ROTARY INERTIA ASSOCIATED WITH IT. THIS COULD LEAD TO 
             EQUATION SOLVER ISSUES (ZERO PIVOTS, NUMERICAL SINGULARITIES, 
             etc.) AND HENCE TO INCORRECT SOLUTIONS WHEN THE CONNECTOR ELEMENT 
             IS ENFORCING KINEMATIC CONSTRAINTS (FROM EITHER INTRINSIC, 
             CONNECTOR STOP/LOCK, or CONNECTOR MOTION). PLEASE ATTACH THE 
             CONNECTOR NODES TO ELEMENTS FOR WHICH ROTARY INERTIA IS DEFINED 
             (SUCH AS ELEMENTS TYPE ROTARYI) TO RESOLVE THE PROBLEM.
 
	REGULARIZED SYMMETRIC DIRECT SPARSE SOLVER RUNNING ON
 	1 HOST:        1 MPI RANK  x 2 THREADS
 	NUMBER OF EQUATIONS:     2772
 	NUMBER OF RHS:           1
 	NUMBER OF FLOPS:         3.172e+07

     CHECK POINT   START OF SOLVER    

     CHECK POINT  END OF SOLVER       

       ELAPSED USER TIME (SEC)      =   0.0000    
       ELAPSED SYSTEM TIME (SEC)    =   0.0000    
       ELAPSED TOTAL CPU TIME (SEC) =   0.0000    
       ELAPSED WALLCLOCK TIME (SEC) =          0
 
	REGULARIZED SYMMETRIC DIRECT SPARSE SOLVER RUNNING ON
 	1 HOST:        1 MPI RANK  x 2 THREADS
 	NUMBER OF EQUATIONS:     2772
 	NUMBER OF RHS:           1
 	NUMBER OF FLOPS:         3.453e+07

     CHECK POINT   START OF SOLVER    

     CHECK POINT  END OF SOLVER       

       ELAPSED USER TIME (SEC)      =  0.10000    
       ELAPSED SYSTEM TIME (SEC)    =   0.0000    
       ELAPSED TOTAL CPU TIME (SEC) =  0.10000    
       ELAPSED WALLCLOCK TIME (SEC) =          0


  INCREMENT     1 STARTS. ATTEMPT NUMBER  1, TIME INCREMENT   1.00    
 
     INITIAL ELEMENT LOAD BALANCE
            DOMAIN    1     THREAD    NUMBER OF ELEMENTS
                              1            200
                              2            201
 
	SYMMETRIC DIRECT SPARSE SOLVER RUNNING ON
 	1 HOST:        1 MPI RANK  x 2 THREADS
 	NUMBER OF EQUATIONS:     2772
 	NUMBER OF RHS:           1
 	NUMBER OF FLOPS:         3.476e+07

     CHECK POINT   START OF SOLVER    

     CHECK POINT  END OF SOLVER       

       ELAPSED USER TIME (SEC)      =  0.10000    
       ELAPSED SYSTEM TIME (SEC)    =   0.0000    
       ELAPSED TOTAL CPU TIME (SEC) =  0.10000    
       ELAPSED WALLCLOCK TIME (SEC) =          0

               CONVERGENCE CHECKS FOR EQUILIBRIUM ITERATION     1


 AVERAGE FORCE                       327.       TIME AVG. FORCE        327.    
 LARGEST RESIDUAL FORCE            -3.548E+03   AT NODE         55   DOF  1
   INSTANCE: PART-2-1                                                                        
 LARGEST INCREMENT OF DISP.         -80.0       AT NODE         11   DOF  3
   INSTANCE: PART-1-2                                                                        
 LARGEST CORRECTION TO DISP.        -80.0       AT NODE         11   DOF  3
   INSTANCE: PART-1-2                                                                        
          FORCE     EQUILIBRIUM NOT ACHIEVED WITHIN TOLERANCE.

 AVERAGE MOMENT                      186.       TIME AVG. MOMENT       186.    
 LARGEST RESIDUAL MOMENT           -4.103E+03   AT NODE        109   DOF  5
   INSTANCE: PART-2-1                                                                        
 LARGEST INCREMENT OF ROTATION     -0.894       AT NODE         45   DOF  5
   INSTANCE: PART-1-3                                                                        
 LARGEST CORRECTION TO ROTATION    -0.894       AT NODE         45   DOF  5
   INSTANCE: PART-1-3                                                                        
          MOMENT    EQUILIBRIUM NOT ACHIEVED WITHIN TOLERANCE.
 
	SYMMETRIC DIRECT SPARSE SOLVER RUNNING ON
 	1 HOST:        1 MPI RANK  x 2 THREADS
 	NUMBER OF EQUATIONS:     2772
 	NUMBER OF RHS:           1
 	NUMBER OF FLOPS:         3.476e+07

     CHECK POINT   START OF SOLVER    

     CHECK POINT  END OF SOLVER       

       ELAPSED USER TIME (SEC)      =   0.0000    
       ELAPSED SYSTEM TIME (SEC)    =   0.0000    
       ELAPSED TOTAL CPU TIME (SEC) =   0.0000    
       ELAPSED WALLCLOCK TIME (SEC) =          0
 

 ***WARNING: THE SYSTEM MATRIX HAS 305 NEGATIVE EIGENVALUES.

     NEGATIVE EIGENVALUES MEAN THAT THE SYSTEM MATRIX IS NOT 
     POSITIVE DEFINITE:
     FOR EXAMPLE, A BIFURCATION (BUCKLING) LOAD MAY HAVE BEEN EXCEEDED.

               CONVERGENCE CHECKS FOR EQUILIBRIUM ITERATION     2


 AVERAGE FORCE                       294.       TIME AVG. FORCE        294.    
 LARGEST RESIDUAL FORCE             5.102E+03   AT NODE         55   DOF  1
   INSTANCE: PART-2-1                                                                        
 LARGEST INCREMENT OF DISP.         -80.0       AT NODE         11   DOF  3
   INSTANCE: PART-1-2                                                                        
 LARGEST CORRECTION TO DISP.        -35.1       AT NODE         45   DOF  1
   INSTANCE: PART-1-3                                                                        
          FORCE     EQUILIBRIUM NOT ACHIEVED WITHIN TOLERANCE.

 AVERAGE MOMENT                      69.5       TIME AVG. MOMENT       69.5    
 LARGEST RESIDUAL MOMENT           -1.441E+03   AT NODE         64   DOF  5
   INSTANCE: PART-1-2                                                                        
 LARGEST INCREMENT OF ROTATION      -1.22       AT NODE          5   DOF  5
   INSTANCE: PART-1-3                                                                        
 LARGEST CORRECTION TO ROTATION     0.719       AT NODE        121   DOF  4
   INSTANCE: PART-2-1                                                                        
          MOMENT    EQUILIBRIUM NOT ACHIEVED WITHIN TOLERANCE.
 
	SYMMETRIC DIRECT SPARSE SOLVER RUNNING ON
 	1 HOST:        1 MPI RANK  x 2 THREADS
 	NUMBER OF EQUATIONS:     2772
 	NUMBER OF RHS:           1
 	NUMBER OF FLOPS:         3.476e+07

     CHECK POINT   START OF SOLVER    

     CHECK POINT  END OF SOLVER       

       ELAPSED USER TIME (SEC)      =   0.0000    
       ELAPSED SYSTEM TIME (SEC)    =   0.0000    
       ELAPSED TOTAL CPU TIME (SEC) =   0.0000    
       ELAPSED WALLCLOCK TIME (SEC) =          0
 

 ***WARNING: THE SYSTEM MATRIX HAS 466 NEGATIVE EIGENVALUES.
             EXPLANATIONS ARE SUGGESTED AFTER THE FIRST OCCURRENCE OF THIS MESSAGE.

               CONVERGENCE CHECKS FOR EQUILIBRIUM ITERATION     3


 AVERAGE FORCE                       160.       TIME AVG. FORCE        160.    
 LARGEST RESIDUAL FORCE            -1.327E+04   AT NODE         43   DOF  3
   INSTANCE: PART-1-3                                                                        
 LARGEST INCREMENT OF DISP.         -84.6       AT NODE        120   DOF  3
   INSTANCE: PART-1-3                                                                        
 LARGEST CORRECTION TO DISP.        -10.0       AT NODE        111   DOF  1
   INSTANCE: PART-1-1                                                                        
          FORCE     EQUILIBRIUM NOT ACHIEVED WITHIN TOLERANCE.

 AVERAGE MOMENT                      258.       TIME AVG. MOMENT       258.    
 LARGEST RESIDUAL MOMENT            1.546E+04   AT NODE         87   DOF  4
   INSTANCE: PART-1-3                                                                        
 LARGEST INCREMENT OF ROTATION      -5.48       AT NODE         66   DOF  5
   INSTANCE: PART-1-3                                                                        
 LARGEST CORRECTION TO ROTATION      42.5       AT NODE        121   DOF  6
   INSTANCE: PART-1-3                                                                        
          MOMENT    EQUILIBRIUM NOT ACHIEVED WITHIN TOLERANCE.
 
	SYMMETRIC DIRECT SPARSE SOLVER RUNNING ON
 	1 HOST:        1 MPI RANK  x 2 THREADS
 	NUMBER OF EQUATIONS:     2772
 	NUMBER OF RHS:           1
 	NUMBER OF FLOPS:         3.476e+07

     CHECK POINT   START OF SOLVER    

     CHECK POINT  END OF SOLVER       

       ELAPSED USER TIME (SEC)      =  0.10000    
       ELAPSED SYSTEM TIME (SEC)    =   0.0000    
       ELAPSED TOTAL CPU TIME (SEC) =  0.10000    
       ELAPSED WALLCLOCK TIME (SEC) =          0
 

 ***WARNING: THE SYSTEM MATRIX HAS 608 NEGATIVE EIGENVALUES.
             EXPLANATIONS ARE SUGGESTED AFTER THE FIRST OCCURRENCE OF THIS MESSAGE.

               CONVERGENCE CHECKS FOR EQUILIBRIUM ITERATION     4


 AVERAGE FORCE                      3.145E+03   TIME AVG. FORCE       3.145E+03
 LARGEST RESIDUAL FORCE             2.319E+06   AT NODE         61   DOF  3
   INSTANCE: PART-2-1                                                                        
 LARGEST INCREMENT OF DISP.          207.       AT NODE        116   DOF  3
   INSTANCE: PART-1-3                                                                        
 LARGEST CORRECTION TO DISP.         267.       AT NODE        116   DOF  3
   INSTANCE: PART-1-3                                                                        
          FORCE     EQUILIBRIUM NOT ACHIEVED WITHIN TOLERANCE.

 AVERAGE MOMENT                     1.999E+04   TIME AVG. MOMENT      1.999E+04
 LARGEST RESIDUAL MOMENT           -2.087E+06   AT NODE         19   DOF  5
   INSTANCE: PART-1-3                                                                        
 LARGEST INCREMENT OF ROTATION       5.87       AT NODE         60   DOF  5
   INSTANCE: PART-2-1                                                                        
 LARGEST CORRECTION TO ROTATION      164.       AT NODE         42   DOF  6
   INSTANCE: PART-1-3                                                                        
          MOMENT    EQUILIBRIUM NOT ACHIEVED WITHIN TOLERANCE.
 

 ***NOTE: THE SOLUTION APPEARS TO BE DIVERGING. CONVERGENCE IS JUDGED UNLIKELY.


  INCREMENT     1 STARTS. ATTEMPT NUMBER  2, TIME INCREMENT  0.250    
 
	SYMMETRIC DIRECT SPARSE SOLVER RUNNING ON
 	1 HOST:        1 MPI RANK  x 2 THREADS
 	NUMBER OF EQUATIONS:     2772
 	NUMBER OF RHS:           1
 	NUMBER OF FLOPS:         3.476e+07

     CHECK POINT   START OF SOLVER    

     CHECK POINT  END OF SOLVER       

       ELAPSED USER TIME (SEC)      =  0.10000    
       ELAPSED SYSTEM TIME (SEC)    =   0.0000    
       ELAPSED TOTAL CPU TIME (SEC) =  0.10000    
       ELAPSED WALLCLOCK TIME (SEC) =          0

               CONVERGENCE CHECKS FOR EQUILIBRIUM ITERATION     1


 AVERAGE FORCE                       33.4       TIME AVG. FORCE        33.4    
 LARGEST RESIDUAL FORCE             -301.       AT NODE         33   DOF  1
   INSTANCE: PART-2-1                                                                        
 LARGEST INCREMENT OF DISP.         -20.0       AT NODE         11   DOF  3
   INSTANCE: PART-1-2                                                                        
 LARGEST CORRECTION TO DISP.        -20.0       AT NODE         11   DOF  3
   INSTANCE: PART-1-2                                                                        
          FORCE     EQUILIBRIUM NOT ACHIEVED WITHIN TOLERANCE.

 AVERAGE MOMENT                      2.44       TIME AVG. MOMENT       2.44    
 LARGEST RESIDUAL MOMENT            -53.9       AT NODE        109   DOF  5
   INSTANCE: PART-2-1                                                                        
 LARGEST INCREMENT OF ROTATION     -0.223       AT NODE         45   DOF  5
   INSTANCE: PART-1-3                                                                        
 LARGEST CORRECTION TO ROTATION    -0.223       AT NODE         45   DOF  5
   INSTANCE: PART-1-3                                                                        
          MOMENT    EQUILIBRIUM NOT ACHIEVED WITHIN TOLERANCE.
 
	SYMMETRIC DIRECT SPARSE SOLVER RUNNING ON
 	1 HOST:        1 MPI RANK  x 2 THREADS
 	NUMBER OF EQUATIONS:     2772
 	NUMBER OF RHS:           1
 	NUMBER OF FLOPS:         3.476e+07

     CHECK POINT   START OF SOLVER    

     CHECK POINT  END OF SOLVER       

       ELAPSED USER TIME (SEC)      =  0.10000    
       ELAPSED SYSTEM TIME (SEC)    =   0.0000    
       ELAPSED TOTAL CPU TIME (SEC) =  0.10000    
       ELAPSED WALLCLOCK TIME (SEC) =          0

               CONVERGENCE CHECKS FOR EQUILIBRIUM ITERATION     2


 AVERAGE FORCE                      0.661       TIME AVG. FORCE       0.661    
 LARGEST RESIDUAL FORCE             -7.38       AT NODE         78   DOF  1
   INSTANCE: PART-1-1                                                                        
 LARGEST INCREMENT OF DISP.         -20.0       AT NODE         11   DOF  3
   INSTANCE: PART-1-2                                                                        
 LARGEST CORRECTION TO DISP.        -1.85       AT NODE         11   DOF  1
   INSTANCE: PART-2-1                                                                        
          FORCE     EQUILIBRIUM NOT ACHIEVED WITHIN TOLERANCE.

 AVERAGE MOMENT                     0.371       TIME AVG. MOMENT      0.371    
 LARGEST RESIDUAL MOMENT            -7.95       AT NODE        109   DOF  5
   INSTANCE: PART-2-1                                                                        
 LARGEST INCREMENT OF ROTATION     -0.204       AT NODE         45   DOF  5
   INSTANCE: PART-1-3                                                                        
 LARGEST CORRECTION TO ROTATION    -2.018E-02   AT NODE         55   DOF  5
   INSTANCE: PART-2-1                                                                        
          MOMENT    EQUILIBRIUM NOT ACHIEVED WITHIN TOLERANCE.
 
	SYMMETRIC DIRECT SPARSE SOLVER RUNNING ON
 	1 HOST:        1 MPI RANK  x 2 THREADS
 	NUMBER OF EQUATIONS:     2772
 	NUMBER OF RHS:           1
 	NUMBER OF FLOPS:         3.476e+07

     CHECK POINT   START OF SOLVER    

     CHECK POINT  END OF SOLVER       

       ELAPSED USER TIME (SEC)      =   0.0000    
       ELAPSED SYSTEM TIME (SEC)    =   0.0000    
       ELAPSED TOTAL CPU TIME (SEC) =   0.0000    
       ELAPSED WALLCLOCK TIME (SEC) =          0
 

 ***WARNING: THE SYSTEM MATRIX HAS 16 NEGATIVE EIGENVALUES.
             EXPLANATIONS ARE SUGGESTED AFTER THE FIRST OCCURRENCE OF THIS MESSAGE.

               CONVERGENCE CHECKS FOR EQUILIBRIUM ITERATION     3


 AVERAGE FORCE                      0.145       TIME AVG. FORCE       0.145    
 LARGEST RESIDUAL FORCE             3.423E-03   AT NODE          4   DOF  2
   INSTANCE: PART-1-3                                                                        
 LARGEST INCREMENT OF DISP.         -20.0       AT NODE         11   DOF  3
   INSTANCE: PART-1-2                                                                        
 LARGEST CORRECTION TO DISP.        3.688E-02   AT NODE         44   DOF  1
   INSTANCE: PART-2-1                                                                        
          FORCE     EQUILIBRIUM NOT ACHIEVED WITHIN TOLERANCE.

 AVERAGE MOMENT                     1.430E-02   TIME AVG. MOMENT      1.430E-02
 LARGEST RESIDUAL MOMENT           -8.431E-03   AT NODE         18   DOF  5
   INSTANCE: PART-1-3                                                                        
 LARGEST INCREMENT OF ROTATION     -0.202       AT NODE         45   DOF  5
   INSTANCE: PART-1-3                                                                        
 LARGEST CORRECTION TO ROTATION     1.516E-03   AT NODE         67   DOF  5
   INSTANCE: PART-1-3                                                                        
          MOMENT    EQUILIBRIUM NOT ACHIEVED WITHIN TOLERANCE.
 
	SYMMETRIC DIRECT SPARSE SOLVER RUNNING ON
 	1 HOST:        1 MPI RANK  x 2 THREADS
 	NUMBER OF EQUATIONS:     2772
 	NUMBER OF RHS:           1
 	NUMBER OF FLOPS:         3.476e+07

     CHECK POINT   START OF SOLVER    

     CHECK POINT  END OF SOLVER       

       ELAPSED USER TIME (SEC)      =   0.0000    
       ELAPSED SYSTEM TIME (SEC)    =   0.0000    
       ELAPSED TOTAL CPU TIME (SEC) =   0.0000    
       ELAPSED WALLCLOCK TIME (SEC) =          0
 

 ***WARNING: THE SYSTEM MATRIX HAS 4 NEGATIVE EIGENVALUES.
             EXPLANATIONS ARE SUGGESTED AFTER THE FIRST OCCURRENCE OF THIS MESSAGE.

               CONVERGENCE CHECKS FOR EQUILIBRIUM ITERATION     4


 AVERAGE FORCE                      0.144       TIME AVG. FORCE       0.144    
 LARGEST RESIDUAL FORCE            -2.106E-02   AT NODE         66   DOF  1
   INSTANCE: PART-2-1                                                                        
 LARGEST INCREMENT OF DISP.         -20.0       AT NODE         11   DOF  3
   INSTANCE: PART-1-2                                                                        
 LARGEST CORRECTION TO DISP.       -4.189E-02   AT NODE         61   DOF  3
   INSTANCE: PART-1-3                                                                        
          FORCE     EQUILIBRIUM NOT ACHIEVED WITHIN TOLERANCE.

 AVERAGE MOMENT                     1.458E-02   TIME AVG. MOMENT      1.458E-02
 LARGEST RESIDUAL MOMENT            1.144E-04   AT NODE         57   DOF  5
   INSTANCE: PART-1-3                                                                        
 LARGEST INCREMENT OF ROTATION     -0.205       AT NODE         67   DOF  5
   INSTANCE: PART-1-3                                                                        
 LARGEST CORRECTION TO ROTATION     2.832E-03   AT NODE         66   DOF  5
   INSTANCE: PART-1-3                                                                        
          MOMENT    EQUILIBRIUM NOT ACHIEVED WITHIN TOLERANCE.
 
	SYMMETRIC DIRECT SPARSE SOLVER RUNNING ON
 	1 HOST:        1 MPI RANK  x 2 THREADS
 	NUMBER OF EQUATIONS:     2772
 	NUMBER OF RHS:           1
 	NUMBER OF FLOPS:         3.476e+07

     CHECK POINT   START OF SOLVER    

     CHECK POINT  END OF SOLVER       

       ELAPSED USER TIME (SEC)      =   0.0000    
       ELAPSED SYSTEM TIME (SEC)    =   0.0000    
       ELAPSED TOTAL CPU TIME (SEC) =   0.0000    
       ELAPSED WALLCLOCK TIME (SEC) =          1
 

 ***WARNING: THE SYSTEM MATRIX HAS 4 NEGATIVE EIGENVALUES.
             EXPLANATIONS ARE SUGGESTED AFTER THE FIRST OCCURRENCE OF THIS MESSAGE.

               CONVERGENCE CHECKS FOR EQUILIBRIUM ITERATION     5


 AVERAGE FORCE                      0.145       TIME AVG. FORCE       0.145    
 LARGEST RESIDUAL FORCE            -1.285E-06   AT NODE         66   DOF  1
   INSTANCE: PART-2-1                                                                        
 LARGEST INCREMENT OF DISP.         -20.0       AT NODE         11   DOF  3
   INSTANCE: PART-1-2                                                                        
 LARGEST CORRECTION TO DISP.       -2.071E-04   AT NODE          6   DOF  3
   INSTANCE: PART-1-3                                                                        
          THE FORCE     EQUILIBRIUM EQUATIONS HAVE CONVERGED

 AVERAGE MOMENT                     1.458E-02   TIME AVG. MOMENT      1.458E-02
 LARGEST RESIDUAL MOMENT           -4.094E-06   AT NODE         78   DOF  5
   INSTANCE: PART-1-3                                                                        
 LARGEST INCREMENT OF ROTATION     -0.205       AT NODE         67   DOF  5
   INSTANCE: PART-1-3                                                                        
 LARGEST CORRECTION TO ROTATION    -1.607E-05   AT NODE          1   DOF  5
   INSTANCE: PART-1-3                                                                        
          THE MOMENT    EQUILIBRIUM EQUATIONS HAVE CONVERGED

  MAXIMUM HALF-INCREMENT FORCE RESIDUAL IS   1.428E+08 AND OCCURS AT NODE         66 INSTANCE PART-2-1                                                                        
  MAXIMUM HALF-INCREMENT MOMENT RESIDUAL IS   3.643E+07 AND OCCURS AT NODE         66 INSTANCE PART-2-1                                                                        
 

 ***NOTE: THE TIME INTEGRATION ACCURACY TOLERANCE HAS BEEN EXCEEDED.


  INCREMENT     1 STARTS. ATTEMPT NUMBER  3, TIME INCREMENT  8.506E-08
 
	SYMMETRIC DIRECT SPARSE SOLVER RUNNING ON
 	1 HOST:        1 MPI RANK  x 2 THREADS
 	NUMBER OF EQUATIONS:     2772
 	NUMBER OF RHS:           1
 	NUMBER OF FLOPS:         3.476e+07

     CHECK POINT   START OF SOLVER    

     CHECK POINT  END OF SOLVER       

       ELAPSED USER TIME (SEC)      =  0.10000    
       ELAPSED SYSTEM TIME (SEC)    =   0.0000    
       ELAPSED TOTAL CPU TIME (SEC) =  0.10000    
       ELAPSED WALLCLOCK TIME (SEC) =          0

               CONVERGENCE CHECKS FOR EQUILIBRIUM ITERATION     1


 AVERAGE FORCE                      0.262       TIME AVG. FORCE       0.262    
 LARGEST RESIDUAL FORCE             6.310E-09   AT NODE         76   DOF  1
   INSTANCE: PART-1-3                                                                        
 LARGEST INCREMENT OF DISP.        -6.805E-06   AT NODE         11   DOF  3
   INSTANCE: PART-1-2                                                                        
 LARGEST CORRECTION TO DISP.       -6.805E-06   AT NODE         11   DOF  3
   INSTANCE: PART-1-2                                                                        
 ESTIMATE OF DISP.    CORRECTION   -7.739E-12
 FORCE     EQUILIB. ACCEPTED BASED ON SMALL RESIDUAL AND ESTIMATED CORRECTION

 AVERAGE MOMENT                     5.837E-05   TIME AVG. MOMENT      5.837E-05
 LARGEST RESIDUAL MOMENT            3.915E-09   AT NODE         77   DOF  5
   INSTANCE: PART-1-3                                                                        
 LARGEST INCREMENT OF ROTATION     -3.598E-08   AT NODE         11   DOF  5
   INSTANCE: PART-1-3                                                                        
 LARGEST CORRECTION TO ROTATION    -3.598E-08   AT NODE         11   DOF  5
   INSTANCE: PART-1-3                                                                        
          ROTATION CORRECTION TOO LARGE COMPARED TO ROTATION INCREMENT
 
	SYMMETRIC DIRECT SPARSE SOLVER RUNNING ON
 	1 HOST:        1 MPI RANK  x 2 THREADS
 	NUMBER OF EQUATIONS:     2772
 	NUMBER OF RHS:           1
 	NUMBER OF FLOPS:         3.476e+07

     CHECK POINT   START OF SOLVER    

     CHECK POINT  END OF SOLVER       

       ELAPSED USER TIME (SEC)      =  0.10000    
       ELAPSED SYSTEM TIME (SEC)    =   0.0000    
       ELAPSED TOTAL CPU TIME (SEC) =  0.10000    
       ELAPSED WALLCLOCK TIME (SEC) =          0

               CONVERGENCE CHECKS FOR EQUILIBRIUM ITERATION     2


 AVERAGE FORCE                      0.262       TIME AVG. FORCE       0.262    
 LARGEST RESIDUAL FORCE            -1.197E-11   AT NODE         10   DOF  1
   INSTANCE: PART-1-3                                                                        
 LARGEST INCREMENT OF DISP.        -6.805E-06   AT NODE         11   DOF  3
   INSTANCE: PART-1-2                                                                        
 LARGEST CORRECTION TO DISP.        6.184E-16   AT NODE         10   DOF  1
   INSTANCE: PART-1-3                                                                        
          THE FORCE     EQUILIBRIUM EQUATIONS HAVE CONVERGED

 AVERAGE MOMENT                     5.866E-05   TIME AVG. MOMENT      5.866E-05
 LARGEST RESIDUAL MOMENT            4.972E-12   AT NODE         10   DOF  6
   INSTANCE: PART-1-3                                                                        
 LARGEST INCREMENT OF ROTATION     -3.598E-08   AT NODE         11   DOF  5
   INSTANCE: PART-1-3                                                                        
 LARGEST CORRECTION TO ROTATION     2.473E-14   AT NODE         77   DOF  5
   INSTANCE: PART-1-3                                                                        
          THE MOMENT    EQUILIBRIUM EQUATIONS HAVE CONVERGED

  MAXIMUM HALF-INCREMENT FORCE RESIDUAL IS   2.051E-03 AND OCCURS AT NODE         87 INSTANCE PART-1-2                                                                        
  MAXIMUM HALF-INCREMENT MOMENT RESIDUAL IS   2.058E-03 AND OCCURS AT NODE         22 INSTANCE PART-1-3                                                                        

 ITERATION SUMMARY FOR THE INCREMENT:   2 TOTAL ITERATIONS, OF WHICH
   0 ARE SEVERE DISCONTINUITY ITERATIONS AND  2 ARE EQUILIBRIUM ITERATIONS.

 TIME INCREMENT COMPLETED  8.506E-08,  FRACTION OF STEP COMPLETED  8.506E-08
 STEP TIME COMPLETED       8.506E-08,  TOTAL TIME COMPLETED        8.506E-08


  INCREMENT     2 STARTS. ATTEMPT NUMBER  1, TIME INCREMENT  8.506E-08
 
	SYMMETRIC DIRECT SPARSE SOLVER RUNNING ON
 	1 HOST:        1 MPI RANK  x 2 THREADS
 	NUMBER OF EQUATIONS:     2772
 	NUMBER OF RHS:           1
 	NUMBER OF FLOPS:         3.476e+07

     CHECK POINT   START OF SOLVER    

     CHECK POINT  END OF SOLVER       

       ELAPSED USER TIME (SEC)      =  0.10000    
       ELAPSED SYSTEM TIME (SEC)    =   0.0000    
       ELAPSED TOTAL CPU TIME (SEC) =  0.10000    
       ELAPSED WALLCLOCK TIME (SEC) =          0

               CONVERGENCE CHECKS FOR EQUILIBRIUM ITERATION     1


 AVERAGE FORCE                      0.640       TIME AVG. FORCE       0.451    
 LARGEST RESIDUAL FORCE             4.242E-11   AT NODE         53   DOF  3
   INSTANCE: PART-1-2                                                                        
 LARGEST INCREMENT OF DISP.        -6.805E-06   AT NODE         11   DOF  3
   INSTANCE: PART-1-2                                                                        
 LARGEST CORRECTION TO DISP.       -9.949E-10   AT NODE         10   DOF  3
   INSTANCE: PART-1-2                                                                        
          THE FORCE     EQUILIBRIUM RESPONSE WAS LINEAR IN THIS INCREMENT

 AVERAGE MOMENT                     6.644E-04   TIME AVG. MOMENT      3.615E-04
 LARGEST RESIDUAL MOMENT            1.439E-11   AT NODE         75   DOF  5
   INSTANCE: PART-1-3                                                                        
 LARGEST INCREMENT OF ROTATION     -1.699E-07   AT NODE         11   DOF  5
   INSTANCE: PART-1-3                                                                        
 LARGEST CORRECTION TO ROTATION    -6.228E-08   AT NODE         11   DOF  5
   INSTANCE: PART-1-3                                                                        
 ESTIMATE OF ROTATION CORRECTION    9.091E-17
 MOMENT    EQUILIB. ACCEPTED BASED ON SMALL RESIDUAL AND ESTIMATED CORRECTION

  MAXIMUM HALF-INCREMENT FORCE RESIDUAL IS  -1.273E-03 AND OCCURS AT NODE         21 INSTANCE PART-1-3                                                                        
  MAXIMUM HALF-INCREMENT MOMENT RESIDUAL IS  -1.507E-03 AND OCCURS AT NODE        109 INSTANCE PART-1-3                                                                        

 ITERATION SUMMARY FOR THE INCREMENT:   1 TOTAL ITERATIONS, OF WHICH
   0 ARE SEVERE DISCONTINUITY ITERATIONS AND  1 ARE EQUILIBRIUM ITERATIONS.

 TIME INCREMENT COMPLETED  8.506E-08,  FRACTION OF STEP COMPLETED  1.701E-07
 STEP TIME COMPLETED       1.701E-07,  TOTAL TIME COMPLETED        1.701E-07


  INCREMENT     3 STARTS. ATTEMPT NUMBER  1, TIME INCREMENT  8.506E-08
 
	SYMMETRIC DIRECT SPARSE SOLVER RUNNING ON
 	1 HOST:        1 MPI RANK  x 2 THREADS
 	NUMBER OF EQUATIONS:     2772
 	NUMBER OF RHS:           1
 	NUMBER OF FLOPS:         3.476e+07

     CHECK POINT   START OF SOLVER    

     CHECK POINT  END OF SOLVER       

       ELAPSED USER TIME (SEC)      =  0.10000    
       ELAPSED SYSTEM TIME (SEC)    =   0.0000    
       ELAPSED TOTAL CPU TIME (SEC) =  0.10000    
       ELAPSED WALLCLOCK TIME (SEC) =          0

               CONVERGENCE CHECKS FOR EQUILIBRIUM ITERATION     1


 AVERAGE FORCE                      0.523       TIME AVG. FORCE       0.475    
 LARGEST RESIDUAL FORCE             8.058E-11   AT NODE        108   DOF  2
   INSTANCE: PART-1-2                                                                        
 LARGEST INCREMENT OF DISP.        -6.805E-06   AT NODE         11   DOF  3
   INSTANCE: PART-1-2                                                                        
 LARGEST CORRECTION TO DISP.       -9.864E-10   AT NODE        120   DOF  3
   INSTANCE: PART-1-2                                                                        
          THE FORCE     EQUILIBRIUM RESPONSE WAS LINEAR IN THIS INCREMENT

 AVERAGE MOMENT                     8.160E-04   TIME AVG. MOMENT      5.130E-04
 LARGEST RESIDUAL MOMENT           -1.708E-11   AT NODE         63   DOF  5
   INSTANCE: PART-1-2                                                                        
 LARGEST INCREMENT OF ROTATION     -4.161E-07   AT NODE         11   DOF  5
   INSTANCE: PART-1-3                                                                        
 LARGEST CORRECTION TO ROTATION    -5.024E-08   AT NODE        121   DOF  5
   INSTANCE: PART-1-3                                                                        
 ESTIMATE OF ROTATION CORRECTION   -1.080E-16
 MOMENT    EQUILIB. ACCEPTED BASED ON SMALL RESIDUAL AND ESTIMATED CORRECTION

  MAXIMUM HALF-INCREMENT FORCE RESIDUAL IS   9.794E-04 AND OCCURS AT NODE         43 INSTANCE PART-1-3                                                                        
  MAXIMUM HALF-INCREMENT MOMENT RESIDUAL IS   8.256E-04 AND OCCURS AT NODE         22 INSTANCE PART-1-3                                                                        
          TIME INCREMENT MAY NOW INCREASE TO    1.063E-07

 ITERATION SUMMARY FOR THE INCREMENT:   1 TOTAL ITERATIONS, OF WHICH
   0 ARE SEVERE DISCONTINUITY ITERATIONS AND  1 ARE EQUILIBRIUM ITERATIONS.

 TIME INCREMENT COMPLETED  8.506E-08,  FRACTION OF STEP COMPLETED  2.552E-07
 STEP TIME COMPLETED       2.552E-07,  TOTAL TIME COMPLETED        2.552E-07


  INCREMENT     4 STARTS. ATTEMPT NUMBER  1, TIME INCREMENT  1.063E-07
 
	SYMMETRIC DIRECT SPARSE SOLVER RUNNING ON
 	1 HOST:        1 MPI RANK  x 2 THREADS
 	NUMBER OF EQUATIONS:     2772
 	NUMBER OF RHS:           1
 	NUMBER OF FLOPS:         3.476e+07

     CHECK POINT   START OF SOLVER    

     CHECK POINT  END OF SOLVER       

       ELAPSED USER TIME (SEC)      =  0.10000    
       ELAPSED SYSTEM TIME (SEC)    =   0.0000    
       ELAPSED TOTAL CPU TIME (SEC) =  0.10000    
       ELAPSED WALLCLOCK TIME (SEC) =          0

               CONVERGENCE CHECKS FOR EQUILIBRIUM ITERATION     1


 AVERAGE FORCE                      0.249       TIME AVG. FORCE       0.418    
 LARGEST RESIDUAL FORCE            -9.015E-11   AT NODE         69   DOF  2
   INSTANCE: PART-1-3                                                                        
 LARGEST INCREMENT OF DISP.        -8.506E-06   AT NODE         11   DOF  3
   INSTANCE: PART-1-2                                                                        
 LARGEST CORRECTION TO DISP.       -1.643E-09   AT NODE         87   DOF  3
   INSTANCE: PART-1-2                                                                        
          THE FORCE     EQUILIBRIUM RESPONSE WAS LINEAR IN THIS INCREMENT

 AVERAGE MOMENT                     7.799E-04   TIME AVG. MOMENT      5.797E-04
 LARGEST RESIDUAL MOMENT           -1.882E-11   AT NODE         40   DOF  5
   INSTANCE: PART-1-2                                                                        
 LARGEST INCREMENT OF ROTATION     -9.841E-07   AT NODE         11   DOF  5
   INSTANCE: PART-1-3                                                                        
 LARGEST CORRECTION TO ROTATION    -4.753E-08   AT NODE        121   DOF  5
   INSTANCE: PART-1-3                                                                        
 ESTIMATE OF ROTATION CORRECTION   -1.836E-16
 MOMENT    EQUILIB. ACCEPTED BASED ON SMALL RESIDUAL AND ESTIMATED CORRECTION

  MAXIMUM HALF-INCREMENT FORCE RESIDUAL IS  -1.360E-03 AND OCCURS AT NODE        109 INSTANCE PART-1-3                                                                        
  MAXIMUM HALF-INCREMENT MOMENT RESIDUAL IS  -1.826E-03 AND OCCURS AT NODE        109 INSTANCE PART-1-3                                                                        
          TIME INCREMENT MAY NOW INCREASE TO    1.329E-07

 ITERATION SUMMARY FOR THE INCREMENT:   1 TOTAL ITERATIONS, OF WHICH
   0 ARE SEVERE DISCONTINUITY ITERATIONS AND  1 ARE EQUILIBRIUM ITERATIONS.

 TIME INCREMENT COMPLETED  1.063E-07,  FRACTION OF STEP COMPLETED  3.615E-07
 STEP TIME COMPLETED       3.615E-07,  TOTAL TIME COMPLETED        3.615E-07


  INCREMENT     5 STARTS. ATTEMPT NUMBER  1, TIME INCREMENT  1.329E-07
 
	SYMMETRIC DIRECT SPARSE SOLVER RUNNING ON
 	1 HOST:        1 MPI RANK  x 2 THREADS
 	NUMBER OF EQUATIONS:     2772
 	NUMBER OF RHS:           1
 	NUMBER OF FLOPS:         3.476e+07

     CHECK POINT   START OF SOLVER    

     CHECK POINT  END OF SOLVER       

       ELAPSED USER TIME (SEC)      =  0.10000    
       ELAPSED SYSTEM TIME (SEC)    =   0.0000    
       ELAPSED TOTAL CPU TIME (SEC) =  0.10000    
       ELAPSED WALLCLOCK TIME (SEC) =          0

               CONVERGENCE CHECKS FOR EQUILIBRIUM ITERATION     1


 AVERAGE FORCE                      0.204       TIME AVG. FORCE       0.376    
 LARGEST RESIDUAL FORCE             2.439E-10   AT NODE         47   DOF  2
   INSTANCE: PART-1-3                                                                        
 LARGEST INCREMENT OF DISP.        -1.063E-05   AT NODE         11   DOF  3
   INSTANCE: PART-1-2                                                                        
 LARGEST CORRECTION TO DISP.       -2.921E-09   AT NODE         43   DOF  3
   INSTANCE: PART-1-2                                                                        
          THE FORCE     EQUILIBRIUM RESPONSE WAS LINEAR IN THIS INCREMENT

 AVERAGE MOMENT                     6.353E-04   TIME AVG. MOMENT      5.909E-04
 LARGEST RESIDUAL MOMENT           -1.926E-11   AT NODE         74   DOF  5
   INSTANCE: PART-1-3                                                                        
 LARGEST INCREMENT OF ROTATION     -2.003E-06   AT NODE         11   DOF  5
   INSTANCE: PART-1-3                                                                        
 LARGEST CORRECTION TO ROTATION     3.979E-08   AT NODE        109   DOF  5
   INSTANCE: PART-1-3                                                                        
 ESTIMATE OF ROTATION CORRECTION   -1.409E-16
 MOMENT    EQUILIB. ACCEPTED BASED ON SMALL RESIDUAL AND ESTIMATED CORRECTION

  MAXIMUM HALF-INCREMENT FORCE RESIDUAL IS   1.537E-03 AND OCCURS AT NODE         43 INSTANCE PART-1-3                                                                        
  MAXIMUM HALF-INCREMENT MOMENT RESIDUAL IS   1.183E-03 AND OCCURS AT NODE        110 INSTANCE PART-1-3                                                                        
          TIME INCREMENT MAY NOW INCREASE TO    1.661E-07

 ITERATION SUMMARY FOR THE INCREMENT:   1 TOTAL ITERATIONS, OF WHICH
   0 ARE SEVERE DISCONTINUITY ITERATIONS AND  1 ARE EQUILIBRIUM ITERATIONS.

 TIME INCREMENT COMPLETED  1.329E-07,  FRACTION OF STEP COMPLETED  4.944E-07
 STEP TIME COMPLETED       4.944E-07,  TOTAL TIME COMPLETED        4.944E-07


  INCREMENT     6 STARTS. ATTEMPT NUMBER  1, TIME INCREMENT  1.661E-07
 
	SYMMETRIC DIRECT SPARSE SOLVER RUNNING ON
 	1 HOST:        1 MPI RANK  x 2 THREADS
 	NUMBER OF EQUATIONS:     2772
 	NUMBER OF RHS:           1
 	NUMBER OF FLOPS:         3.476e+07

     CHECK POINT   START OF SOLVER    

     CHECK POINT  END OF SOLVER       

       ELAPSED USER TIME (SEC)      =   0.0000    
       ELAPSED SYSTEM TIME (SEC)    =   0.0000    
       ELAPSED TOTAL CPU TIME (SEC) =   0.0000    
       ELAPSED WALLCLOCK TIME (SEC) =          0

               CONVERGENCE CHECKS FOR EQUILIBRIUM ITERATION     1


 AVERAGE FORCE                      0.140       TIME AVG. FORCE       0.336    
 LARGEST RESIDUAL FORCE             7.735E-10   AT NODE         65   DOF  1
   INSTANCE: PART-2-1                                                                        
 LARGEST INCREMENT OF DISP.        -1.329E-05   AT NODE         11   DOF  3
   INSTANCE: PART-1-2                                                                        
 LARGEST CORRECTION TO DISP.       -5.531E-09   AT NODE        120   DOF  1
   INSTANCE: PART-1-2                                                                        
          THE FORCE     EQUILIBRIUM RESPONSE WAS LINEAR IN THIS INCREMENT

 AVERAGE MOMENT                     3.879E-04   TIME AVG. MOMENT      5.570E-04
 LARGEST RESIDUAL MOMENT           -2.353E-11   AT NODE         61   DOF  5
   INSTANCE: PART-1-3                                                                        
 LARGEST INCREMENT OF ROTATION     -3.466E-06   AT NODE         11   DOF  5
   INSTANCE: PART-1-3                                                                        
 LARGEST CORRECTION TO ROTATION     2.311E-07   AT NODE         44   DOF  5
   INSTANCE: PART-1-3                                                                        
 ESTIMATE OF ROTATION CORRECTION   -3.043E-16
 MOMENT    EQUILIB. ACCEPTED BASED ON SMALL RESIDUAL AND ESTIMATED CORRECTION

  MAXIMUM HALF-INCREMENT FORCE RESIDUAL IS  -2.209E-03 AND OCCURS AT NODE        109 INSTANCE PART-1-3                                                                        
  MAXIMUM HALF-INCREMENT MOMENT RESIDUAL IS  -2.467E-03 AND OCCURS AT NODE         88 INSTANCE PART-1-3                                                                        
          TIME INCREMENT MAY NOW INCREASE TO    2.077E-07

 ITERATION SUMMARY FOR THE INCREMENT:   1 TOTAL ITERATIONS, OF WHICH
   0 ARE SEVERE DISCONTINUITY ITERATIONS AND  1 ARE EQUILIBRIUM ITERATIONS.

 TIME INCREMENT COMPLETED  1.661E-07,  FRACTION OF STEP COMPLETED  6.605E-07
 STEP TIME COMPLETED       6.605E-07,  TOTAL TIME COMPLETED        6.605E-07


  INCREMENT     7 STARTS. ATTEMPT NUMBER  1, TIME INCREMENT  2.077E-07
 
	SYMMETRIC DIRECT SPARSE SOLVER RUNNING ON
 	1 HOST:        1 MPI RANK  x 2 THREADS
 	NUMBER OF EQUATIONS:     2772
 	NUMBER OF RHS:           1
 	NUMBER OF FLOPS:         3.476e+07

     CHECK POINT   START OF SOLVER    

     CHECK POINT  END OF SOLVER       

       ELAPSED USER TIME (SEC)      =   0.0000    
       ELAPSED SYSTEM TIME (SEC)    =  0.10000    
       ELAPSED TOTAL CPU TIME (SEC) =  0.10000    
       ELAPSED WALLCLOCK TIME (SEC) =          0

               CONVERGENCE CHECKS FOR EQUILIBRIUM ITERATION     1


 AVERAGE FORCE                      9.930E-02   TIME AVG. FORCE       0.302    
 LARGEST RESIDUAL FORCE            -4.651E-10   AT NODE         98   DOF  1
   INSTANCE: PART-1-3                                                                        
 LARGEST INCREMENT OF DISP.        -1.661E-05   AT NODE         11   DOF  3
   INSTANCE: PART-1-2                                                                        
 LARGEST CORRECTION TO DISP.       -1.168E-08   AT NODE        120   DOF  1
   INSTANCE: PART-1-2                                                                        
          THE FORCE     EQUILIBRIUM RESPONSE WAS LINEAR IN THIS INCREMENT

 AVERAGE MOMENT                     4.302E-04   TIME AVG. MOMENT      5.389E-04
 LARGEST RESIDUAL MOMENT           -3.226E-11   AT NODE         77   DOF  5
   INSTANCE: PART-1-3                                                                        
 LARGEST INCREMENT OF ROTATION     -4.893E-06   AT NODE         11   DOF  5
   INSTANCE: PART-1-3                                                                        
 LARGEST CORRECTION TO ROTATION     6.560E-07   AT NODE         88   DOF  5
   INSTANCE: PART-1-3                                                                        
 ESTIMATE OF ROTATION CORRECTION   -7.745E-16
 MOMENT    EQUILIB. ACCEPTED BASED ON SMALL RESIDUAL AND ESTIMATED CORRECTION

  MAXIMUM HALF-INCREMENT FORCE RESIDUAL IS   2.619E-03 AND OCCURS AT NODE         87 INSTANCE PART-1-3                                                                        
  MAXIMUM HALF-INCREMENT MOMENT RESIDUAL IS   4.081E-03 AND OCCURS AT NODE         32 INSTANCE PART-1-3                                                                        
          TIME INCREMENT MAY NOW INCREASE TO    2.596E-07

 ITERATION SUMMARY FOR THE INCREMENT:   1 TOTAL ITERATIONS, OF WHICH
   0 ARE SEVERE DISCONTINUITY ITERATIONS AND  1 ARE EQUILIBRIUM ITERATIONS.

 TIME INCREMENT COMPLETED  2.077E-07,  FRACTION OF STEP COMPLETED  8.682E-07
 STEP TIME COMPLETED       8.682E-07,  TOTAL TIME COMPLETED        8.682E-07


  INCREMENT     8 STARTS. ATTEMPT NUMBER  1, TIME INCREMENT  2.596E-07
 
	SYMMETRIC DIRECT SPARSE SOLVER RUNNING ON
 	1 HOST:        1 MPI RANK  x 2 THREADS
 	NUMBER OF EQUATIONS:     2772
 	NUMBER OF RHS:           1
 	NUMBER OF FLOPS:         3.476e+07

     CHECK POINT   START OF SOLVER    

     CHECK POINT  END OF SOLVER       

       ELAPSED USER TIME (SEC)      =  0.10000    
       ELAPSED SYSTEM TIME (SEC)    =   0.0000    
       ELAPSED TOTAL CPU TIME (SEC) =  0.10000    
       ELAPSED WALLCLOCK TIME (SEC) =          0

               CONVERGENCE CHECKS FOR EQUILIBRIUM ITERATION     1


 AVERAGE FORCE                      6.132E-02   TIME AVG. FORCE       0.272    
 LARGEST RESIDUAL FORCE             6.628E-10   AT NODE         21   DOF  3
   INSTANCE: PART-1-2                                                                        
 LARGEST INCREMENT OF DISP.        -2.077E-05   AT NODE         11   DOF  3
   INSTANCE: PART-1-2                                                                        
 LARGEST CORRECTION TO DISP.       -2.279E-08   AT NODE        120   DOF  1
   INSTANCE: PART-1-2                                                                        
          THE FORCE     EQUILIBRIUM RESPONSE WAS LINEAR IN THIS INCREMENT

 AVERAGE MOMENT                     4.192E-04   TIME AVG. MOMENT      5.239E-04
 LARGEST RESIDUAL MOMENT            7.622E-11   AT NODE        110   DOF  4
   INSTANCE: PART-1-2                                                                        
 LARGEST INCREMENT OF ROTATION     -5.324E-06   AT NODE         11   DOF  5
   INSTANCE: PART-1-3                                                                        
 LARGEST CORRECTION TO ROTATION     8.549E-07   AT NODE         22   DOF  5
   INSTANCE: PART-1-3                                                                        
 ESTIMATE OF ROTATION CORRECTION    3.510E-15
 MOMENT    EQUILIB. ACCEPTED BASED ON SMALL RESIDUAL AND ESTIMATED CORRECTION

  MAXIMUM HALF-INCREMENT FORCE RESIDUAL IS  -3.232E-03 AND OCCURS AT NODE        109 INSTANCE PART-1-3                                                                        
  MAXIMUM HALF-INCREMENT MOMENT RESIDUAL IS  -2.635E-03 AND OCCURS AT NODE         98 INSTANCE PART-1-2                                                                        
          TIME INCREMENT MAY NOW INCREASE TO    3.245E-07

 ITERATION SUMMARY FOR THE INCREMENT:   1 TOTAL ITERATIONS, OF WHICH
   0 ARE SEVERE DISCONTINUITY ITERATIONS AND  1 ARE EQUILIBRIUM ITERATIONS.

 TIME INCREMENT COMPLETED  2.596E-07,  FRACTION OF STEP COMPLETED  1.128E-06
 STEP TIME COMPLETED       1.128E-06,  TOTAL TIME COMPLETED        1.128E-06


  INCREMENT     9 STARTS. ATTEMPT NUMBER  1, TIME INCREMENT  3.245E-07
 
	SYMMETRIC DIRECT SPARSE SOLVER RUNNING ON
 	1 HOST:        1 MPI RANK  x 2 THREADS
 	NUMBER OF EQUATIONS:     2772
 	NUMBER OF RHS:           1
 	NUMBER OF FLOPS:         3.476e+07

     CHECK POINT   START OF SOLVER    

     CHECK POINT  END OF SOLVER       

       ELAPSED USER TIME (SEC)      =   0.0000    
       ELAPSED SYSTEM TIME (SEC)    =   0.0000    
       ELAPSED TOTAL CPU TIME (SEC) =   0.0000    
       ELAPSED WALLCLOCK TIME (SEC) =          0

               CONVERGENCE CHECKS FOR EQUILIBRIUM ITERATION     1


 AVERAGE FORCE                      4.249E-02   TIME AVG. FORCE       0.247    
 LARGEST RESIDUAL FORCE             2.737E-09   AT NODE         89   DOF  2
   INSTANCE: PART-1-1                                                                        
 LARGEST INCREMENT OF DISP.        -2.596E-05   AT NODE         11   DOF  3
   INSTANCE: PART-1-2                                                                        
 LARGEST CORRECTION TO DISP.       -3.979E-08   AT NODE         10   DOF  1
   INSTANCE: PART-1-2                                                                        
          THE FORCE     EQUILIBRIUM EQUATIONS HAVE CONVERGED

 AVERAGE MOMENT                     2.619E-04   TIME AVG. MOMENT      4.948E-04
 LARGEST RESIDUAL MOMENT           -1.086E-10   AT NODE         64   DOF  5
   INSTANCE: PART-1-3                                                                        
 LARGEST INCREMENT OF ROTATION     -4.670E-06   AT NODE         11   DOF  5
   INSTANCE: PART-1-3                                                                        
 LARGEST CORRECTION TO ROTATION    -8.535E-07   AT NODE         10   DOF  5
   INSTANCE: PART-1-3                                                                        
 ESTIMATE OF ROTATION CORRECTION   -3.211E-15
 MOMENT    EQUILIB. ACCEPTED BASED ON SMALL RESIDUAL AND ESTIMATED CORRECTION

  MAXIMUM HALF-INCREMENT FORCE RESIDUAL IS   4.502E-03 AND OCCURS AT NODE         43 INSTANCE PART-1-3                                                                        
  MAXIMUM HALF-INCREMENT MOMENT RESIDUAL IS   5.107E-03 AND OCCURS AT NODE         33 INSTANCE PART-1-3                                                                        
          TIME INCREMENT MAY NOW INCREASE TO    4.056E-07

 ITERATION SUMMARY FOR THE INCREMENT:   1 TOTAL ITERATIONS, OF WHICH
   0 ARE SEVERE DISCONTINUITY ITERATIONS AND  1 ARE EQUILIBRIUM ITERATIONS.

 TIME INCREMENT COMPLETED  3.245E-07,  FRACTION OF STEP COMPLETED  1.452E-06
 STEP TIME COMPLETED       1.452E-06,  TOTAL TIME COMPLETED        1.452E-06


  INCREMENT    10 STARTS. ATTEMPT NUMBER  1, TIME INCREMENT  4.056E-07
 
	SYMMETRIC DIRECT SPARSE SOLVER RUNNING ON
 	1 HOST:        1 MPI RANK  x 2 THREADS
 	NUMBER OF EQUATIONS:     2772
 	NUMBER OF RHS:           1
 	NUMBER OF FLOPS:         3.476e+07

     CHECK POINT   START OF SOLVER    

     CHECK POINT  END OF SOLVER       

       ELAPSED USER TIME (SEC)      =   0.0000    
       ELAPSED SYSTEM TIME (SEC)    =   0.0000    
       ELAPSED TOTAL CPU TIME (SEC) =   0.0000    
       ELAPSED WALLCLOCK TIME (SEC) =          0

               CONVERGENCE CHECKS FOR EQUILIBRIUM ITERATION     1


 AVERAGE FORCE                      3.394E-02   TIME AVG. FORCE       0.225    
 LARGEST RESIDUAL FORCE             6.275E-09   AT NODE         21   DOF  3
   INSTANCE: PART-1-3                                                                        
 LARGEST INCREMENT OF DISP.        -3.245E-05   AT NODE         11   DOF  3
   INSTANCE: PART-1-2                                                                        
 LARGEST CORRECTION TO DISP.       -6.952E-08   AT NODE         43   DOF  3
   INSTANCE: PART-1-2                                                                        
          THE FORCE     EQUILIBRIUM EQUATIONS HAVE CONVERGED

 AVERAGE MOMENT                     3.738E-04   TIME AVG. MOMENT      4.827E-04
 LARGEST RESIDUAL MOMENT            4.680E-10   AT NODE         99   DOF  5
   INSTANCE: PART-1-3                                                                        
 LARGEST INCREMENT OF ROTATION     -5.469E-06   AT NODE        121   DOF  5
   INSTANCE: PART-1-3                                                                        
 LARGEST CORRECTION TO ROTATION    -2.343E-06   AT NODE         11   DOF  5
   INSTANCE: PART-1-3                                                                        
 ESTIMATE OF ROTATION CORRECTION    2.048E-14
 MOMENT    EQUILIB. ACCEPTED BASED ON SMALL RESIDUAL AND ESTIMATED CORRECTION

  MAXIMUM HALF-INCREMENT FORCE RESIDUAL IS  -5.798E-03 AND OCCURS AT NODE        109 INSTANCE PART-1-3                                                                        
  MAXIMUM HALF-INCREMENT MOMENT RESIDUAL IS  -1.150E-02 AND OCCURS AT NODE         87 INSTANCE PART-1-3                                                                        
          TIME INCREMENT MAY NOW INCREASE TO    5.070E-07

 ITERATION SUMMARY FOR THE INCREMENT:   1 TOTAL ITERATIONS, OF WHICH
   0 ARE SEVERE DISCONTINUITY ITERATIONS AND  1 ARE EQUILIBRIUM ITERATIONS.

 TIME INCREMENT COMPLETED  4.056E-07,  FRACTION OF STEP COMPLETED  1.858E-06
 STEP TIME COMPLETED       1.858E-06,  TOTAL TIME COMPLETED        1.858E-06


  INCREMENT    11 STARTS. ATTEMPT NUMBER  1, TIME INCREMENT  5.070E-07
 
	SYMMETRIC DIRECT SPARSE SOLVER RUNNING ON
 	1 HOST:        1 MPI RANK  x 2 THREADS
 	NUMBER OF EQUATIONS:     2772
 	NUMBER OF RHS:           1
 	NUMBER OF FLOPS:         3.476e+07

     CHECK POINT   START OF SOLVER    

     CHECK POINT  END OF SOLVER       

       ELAPSED USER TIME (SEC)      =   0.0000    
       ELAPSED SYSTEM TIME (SEC)    =   0.0000    
       ELAPSED TOTAL CPU TIME (SEC) =   0.0000    
       ELAPSED WALLCLOCK TIME (SEC) =          0

               CONVERGENCE CHECKS FOR EQUILIBRIUM ITERATION     1


 AVERAGE FORCE                      2.458E-02   TIME AVG. FORCE       0.207    
 LARGEST RESIDUAL FORCE             4.850E-09   AT NODE         19   DOF  3
   INSTANCE: PART-1-2                                                                        
 LARGEST INCREMENT OF DISP.        -4.056E-05   AT NODE         11   DOF  3
   INSTANCE: PART-1-2                                                                        
 LARGEST CORRECTION TO DISP.       -1.252E-07   AT NODE        120   DOF  3
   INSTANCE: PART-1-2                                                                        
          THE FORCE     EQUILIBRIUM EQUATIONS HAVE CONVERGED

 AVERAGE MOMENT                     2.931E-04   TIME AVG. MOMENT      4.655E-04
 LARGEST RESIDUAL MOMENT           -6.653E-10   AT NODE         53   DOF  5
   INSTANCE: PART-1-2                                                                        
 LARGEST INCREMENT OF ROTATION     -9.230E-06   AT NODE         11   DOF  5
   INSTANCE: PART-1-3                                                                        
 LARGEST CORRECTION TO ROTATION     2.529E-06   AT NODE          9   DOF  5
   INSTANCE: PART-1-3                                                                        
 ESTIMATE OF ROTATION CORRECTION   -3.498E-14
 MOMENT    EQUILIB. ACCEPTED BASED ON SMALL RESIDUAL AND ESTIMATED CORRECTION

  MAXIMUM HALF-INCREMENT FORCE RESIDUAL IS   6.121E-03 AND OCCURS AT NODE         65 INSTANCE PART-1-3                                                                        
  MAXIMUM HALF-INCREMENT MOMENT RESIDUAL IS   8.241E-03 AND OCCURS AT NODE         21 INSTANCE PART-1-3                                                                        
          TIME INCREMENT MAY NOW INCREASE TO    6.337E-07

 ITERATION SUMMARY FOR THE INCREMENT:   1 TOTAL ITERATIONS, OF WHICH
   0 ARE SEVERE DISCONTINUITY ITERATIONS AND  1 ARE EQUILIBRIUM ITERATIONS.

 TIME INCREMENT COMPLETED  5.070E-07,  FRACTION OF STEP COMPLETED  2.365E-06
 STEP TIME COMPLETED       2.365E-06,  TOTAL TIME COMPLETED        2.365E-06


  INCREMENT    12 STARTS. ATTEMPT NUMBER  1, TIME INCREMENT  6.337E-07
 
	SYMMETRIC DIRECT SPARSE SOLVER RUNNING ON
 	1 HOST:        1 MPI RANK  x 2 THREADS
 	NUMBER OF EQUATIONS:     2772
 	NUMBER OF RHS:           1
 	NUMBER OF FLOPS:         3.476e+07

     CHECK POINT   START OF SOLVER    

     CHECK POINT  END OF SOLVER       

       ELAPSED USER TIME (SEC)      =   0.0000    
       ELAPSED SYSTEM TIME (SEC)    =   0.0000    
       ELAPSED TOTAL CPU TIME (SEC) =   0.0000    
       ELAPSED WALLCLOCK TIME (SEC) =          0

               CONVERGENCE CHECKS FOR EQUILIBRIUM ITERATION     1


 AVERAGE FORCE                      1.830E-02   TIME AVG. FORCE       0.191    
 LARGEST RESIDUAL FORCE             1.861E-08   AT NODE         21   DOF  1
   INSTANCE: PART-1-2                                                                        
 LARGEST INCREMENT OF DISP.        -5.070E-05   AT NODE         11   DOF  3
   INSTANCE: PART-1-2                                                                        
 LARGEST CORRECTION TO DISP.       -1.933E-07   AT NODE        120   DOF  1
   INSTANCE: PART-1-2                                                                        
          THE FORCE     EQUILIBRIUM EQUATIONS HAVE CONVERGED

 AVERAGE MOMENT                     3.314E-04   TIME AVG. MOMENT      4.543E-04
 LARGEST RESIDUAL MOMENT           -2.746E-09   AT NODE         66   DOF  5
   INSTANCE: PART-1-3                                                                        
 LARGEST INCREMENT OF ROTATION     -1.110E-05   AT NODE         11   DOF  5
   INSTANCE: PART-1-3                                                                        
 LARGEST CORRECTION TO ROTATION     4.276E-06   AT NODE         66   DOF  5
   INSTANCE: PART-1-3                                                                        
 ESTIMATE OF ROTATION CORRECTION   -1.652E-13
 MOMENT    EQUILIB. ACCEPTED BASED ON SMALL RESIDUAL AND ESTIMATED CORRECTION

  MAXIMUM HALF-INCREMENT FORCE RESIDUAL IS  -9.230E-03 AND OCCURS AT NODE        109 INSTANCE PART-1-3                                                                        
  MAXIMUM HALF-INCREMENT MOMENT RESIDUAL IS  -9.486E-03 AND OCCURS AT NODE         43 INSTANCE PART-1-2                                                                        
          TIME INCREMENT MAY NOW INCREASE TO    7.922E-07

 ITERATION SUMMARY FOR THE INCREMENT:   1 TOTAL ITERATIONS, OF WHICH
   0 ARE SEVERE DISCONTINUITY ITERATIONS AND  1 ARE EQUILIBRIUM ITERATIONS.

 TIME INCREMENT COMPLETED  6.337E-07,  FRACTION OF STEP COMPLETED  2.999E-06
 STEP TIME COMPLETED       2.999E-06,  TOTAL TIME COMPLETED        2.999E-06


  INCREMENT    13 STARTS. ATTEMPT NUMBER  1, TIME INCREMENT  7.922E-07
 
	SYMMETRIC DIRECT SPARSE SOLVER RUNNING ON
 	1 HOST:        1 MPI RANK  x 2 THREADS
 	NUMBER OF EQUATIONS:     2772
 	NUMBER OF RHS:           1
 	NUMBER OF FLOPS:         3.476e+07

     CHECK POINT   START OF SOLVER    

     CHECK POINT  END OF SOLVER       

       ELAPSED USER TIME (SEC)      =   0.0000    
       ELAPSED SYSTEM TIME (SEC)    =   0.0000    
       ELAPSED TOTAL CPU TIME (SEC) =   0.0000    
       ELAPSED WALLCLOCK TIME (SEC) =          0

               CONVERGENCE CHECKS FOR EQUILIBRIUM ITERATION     1


 AVERAGE FORCE                      1.750E-02   TIME AVG. FORCE       0.178    
 LARGEST RESIDUAL FORCE             2.003E-08   AT NODE        107   DOF  1
   INSTANCE: PART-1-2                                                                        
 LARGEST INCREMENT OF DISP.        -6.337E-05   AT NODE         11   DOF  3
   INSTANCE: PART-1-2                                                                        
 LARGEST CORRECTION TO DISP.        2.698E-07   AT NODE        120   DOF  1
   INSTANCE: PART-1-3                                                                        
          THE FORCE     EQUILIBRIUM EQUATIONS HAVE CONVERGED

 AVERAGE MOMENT                     3.354E-04   TIME AVG. MOMENT      4.452E-04
 LARGEST RESIDUAL MOMENT            3.522E-09   AT NODE         86   DOF  5
   INSTANCE: PART-1-2                                                                        
 LARGEST INCREMENT OF ROTATION     -1.119E-05   AT NODE        121   DOF  5
   INSTANCE: PART-1-3                                                                        
 LARGEST CORRECTION TO ROTATION     5.184E-06   AT NODE         42   DOF  5
   INSTANCE: PART-1-2                                                                        
 ESTIMATE OF ROTATION CORRECTION   -2.234E-13
 MOMENT    EQUILIB. ACCEPTED BASED ON SMALL RESIDUAL AND ESTIMATED CORRECTION

  MAXIMUM HALF-INCREMENT FORCE RESIDUAL IS   1.015E-02 AND OCCURS AT NODE         54 INSTANCE PART-1-3                                                                        
  MAXIMUM HALF-INCREMENT MOMENT RESIDUAL IS   1.343E-02 AND OCCURS AT NODE         76 INSTANCE PART-1-2                                                                        
          TIME INCREMENT MAY NOW INCREASE TO    9.902E-07

 ITERATION SUMMARY FOR THE INCREMENT:   1 TOTAL ITERATIONS, OF WHICH
   0 ARE SEVERE DISCONTINUITY ITERATIONS AND  1 ARE EQUILIBRIUM ITERATIONS.

 TIME INCREMENT COMPLETED  7.922E-07,  FRACTION OF STEP COMPLETED  3.791E-06
 STEP TIME COMPLETED       3.791E-06,  TOTAL TIME COMPLETED        3.791E-06


  INCREMENT    14 STARTS. ATTEMPT NUMBER  1, TIME INCREMENT  9.902E-07
 
	SYMMETRIC DIRECT SPARSE SOLVER RUNNING ON
 	1 HOST:        1 MPI RANK  x 2 THREADS
 	NUMBER OF EQUATIONS:     2772
 	NUMBER OF RHS:           1
 	NUMBER OF FLOPS:         3.476e+07

     CHECK POINT   START OF SOLVER    

     CHECK POINT  END OF SOLVER       

       ELAPSED USER TIME (SEC)      =  0.10000    
       ELAPSED SYSTEM TIME (SEC)    =   0.0000    
       ELAPSED TOTAL CPU TIME (SEC) =  0.10000    
       ELAPSED WALLCLOCK TIME (SEC) =          0

               CONVERGENCE CHECKS FOR EQUILIBRIUM ITERATION     1


 AVERAGE FORCE                      1.755E-02   TIME AVG. FORCE       0.167    
 LARGEST RESIDUAL FORCE            -3.399E-08   AT NODE         20   DOF  3
   INSTANCE: PART-1-3                                                                        
 LARGEST INCREMENT OF DISP.        -7.922E-05   AT NODE         11   DOF  3
   INSTANCE: PART-1-2                                                                        
 LARGEST CORRECTION TO DISP.       -4.006E-07   AT NODE          9   DOF  3
   INSTANCE: PART-1-2                                                                        
          THE FORCE     EQUILIBRIUM EQUATIONS HAVE CONVERGED

 AVERAGE MOMENT                     2.857E-04   TIME AVG. MOMENT      4.338E-04
 LARGEST RESIDUAL MOMENT            5.981E-09   AT NODE         63   DOF  5
   INSTANCE: PART-1-3                                                                        
 LARGEST INCREMENT OF ROTATION     -1.610E-05   AT NODE        121   DOF  5
   INSTANCE: PART-1-3                                                                        
 LARGEST CORRECTION TO ROTATION     6.098E-06   AT NODE        107   DOF  5
   INSTANCE: PART-1-3                                                                        
 ESTIMATE OF ROTATION CORRECTION    4.717E-13
 MOMENT    EQUILIB. ACCEPTED BASED ON SMALL RESIDUAL AND ESTIMATED CORRECTION

  MAXIMUM HALF-INCREMENT FORCE RESIDUAL IS  -1.702E-02 AND OCCURS AT NODE         21 INSTANCE PART-1-3                                                                        
  MAXIMUM HALF-INCREMENT MOMENT RESIDUAL IS  -1.320E-02 AND OCCURS AT NODE         88 INSTANCE PART-1-3                                                                        
          TIME INCREMENT MAY NOW INCREASE TO    1.238E-06

 ITERATION SUMMARY FOR THE INCREMENT:   1 TOTAL ITERATIONS, OF WHICH
   0 ARE SEVERE DISCONTINUITY ITERATIONS AND  1 ARE EQUILIBRIUM ITERATIONS.

 TIME INCREMENT COMPLETED  9.902E-07,  FRACTION OF STEP COMPLETED  4.781E-06
 STEP TIME COMPLETED       4.781E-06,  TOTAL TIME COMPLETED        4.781E-06


  INCREMENT    15 STARTS. ATTEMPT NUMBER  1, TIME INCREMENT  1.238E-06
 
	SYMMETRIC DIRECT SPARSE SOLVER RUNNING ON
 	1 HOST:        1 MPI RANK  x 2 THREADS
 	NUMBER OF EQUATIONS:     2772
 	NUMBER OF RHS:           1
 	NUMBER OF FLOPS:         3.476e+07

     CHECK POINT   START OF SOLVER    

     CHECK POINT  END OF SOLVER       

       ELAPSED USER TIME (SEC)      =  0.10000    
       ELAPSED SYSTEM TIME (SEC)    =   0.0000    
       ELAPSED TOTAL CPU TIME (SEC) =  0.10000    
       ELAPSED WALLCLOCK TIME (SEC) =          0

               CONVERGENCE CHECKS FOR EQUILIBRIUM ITERATION     1


 AVERAGE FORCE                      1.552E-02   TIME AVG. FORCE       0.157    
 LARGEST RESIDUAL FORCE             5.096E-08   AT NODE         52   DOF  1
   INSTANCE: PART-1-3                                                                        
 LARGEST INCREMENT OF DISP.        -9.902E-05   AT NODE         11   DOF  3
   INSTANCE: PART-1-2                                                                        
 LARGEST CORRECTION TO DISP.       -9.867E-07   AT NODE          9   DOF  1
   INSTANCE: PART-1-2                                                                        
          THE FORCE     EQUILIBRIUM EQUATIONS HAVE CONVERGED

 AVERAGE MOMENT                     2.625E-04   TIME AVG. MOMENT      4.224E-04
 LARGEST RESIDUAL MOMENT            2.018E-08   AT NODE        108   DOF  5
   INSTANCE: PART-1-2                                                                        
 LARGEST INCREMENT OF ROTATION     -1.874E-05   AT NODE        121   DOF  5
   INSTANCE: PART-1-3                                                                        
 LARGEST CORRECTION TO ROTATION    -7.557E-06   AT NODE         55   DOF  5
   INSTANCE: PART-1-2                                                                        
 ESTIMATE OF ROTATION CORRECTION   -1.549E-12
 MOMENT    EQUILIB. ACCEPTED BASED ON SMALL RESIDUAL AND ESTIMATED CORRECTION

  MAXIMUM HALF-INCREMENT FORCE RESIDUAL IS   1.694E-02 AND OCCURS AT NODE        109 INSTANCE PART-1-3                                                                        
  MAXIMUM HALF-INCREMENT MOMENT RESIDUAL IS   2.713E-02 AND OCCURS AT NODE         54 INSTANCE PART-1-3                                                                        
          TIME INCREMENT MAY NOW INCREASE TO    1.547E-06

 ITERATION SUMMARY FOR THE INCREMENT:   1 TOTAL ITERATIONS, OF WHICH
   0 ARE SEVERE DISCONTINUITY ITERATIONS AND  1 ARE EQUILIBRIUM ITERATIONS.

 TIME INCREMENT COMPLETED  1.238E-06,  FRACTION OF STEP COMPLETED  6.019E-06
 STEP TIME COMPLETED       6.019E-06,  TOTAL TIME COMPLETED        6.019E-06


  INCREMENT    16 STARTS. ATTEMPT NUMBER  1, TIME INCREMENT  1.547E-06
 
	SYMMETRIC DIRECT SPARSE SOLVER RUNNING ON
 	1 HOST:        1 MPI RANK  x 2 THREADS
 	NUMBER OF EQUATIONS:     2772
 	NUMBER OF RHS:           1
 	NUMBER OF FLOPS:         3.476e+07

     CHECK POINT   START OF SOLVER    

     CHECK POINT  END OF SOLVER       

       ELAPSED USER TIME (SEC)      =   0.0000    
       ELAPSED SYSTEM TIME (SEC)    =   0.0000    
       ELAPSED TOTAL CPU TIME (SEC) =   0.0000    
       ELAPSED WALLCLOCK TIME (SEC) =          0

               CONVERGENCE CHECKS FOR EQUILIBRIUM ITERATION     1


 AVERAGE FORCE                      1.620E-02   TIME AVG. FORCE       0.148    
 LARGEST RESIDUAL FORCE             1.601E-07   AT NODE         64   DOF  3
   INSTANCE: PART-1-2                                                                        
 LARGEST INCREMENT OF DISP.        -1.238E-04   AT NODE         11   DOF  3
   INSTANCE: PART-1-2                                                                        
 LARGEST CORRECTION TO DISP.       -2.757E-06   AT NODE        121   DOF  2
   INSTANCE: PART-1-2                                                                        
 ESTIMATE OF DISP.    CORRECTION    6.230E-12
 FORCE     EQUILIB. ACCEPTED BASED ON SMALL RESIDUAL AND ESTIMATED CORRECTION

 AVERAGE MOMENT                     2.945E-04   TIME AVG. MOMENT      4.144E-04
 LARGEST RESIDUAL MOMENT            9.429E-08   AT NODE        108   DOF  5
   INSTANCE: PART-1-3                                                                        
 LARGEST INCREMENT OF ROTATION      2.153E-05   AT NODE        121   DOF  5
   INSTANCE: PART-1-2                                                                        
 LARGEST CORRECTION TO ROTATION    -9.865E-06   AT NODE         43   DOF  5
   INSTANCE: PART-1-3                                                                        
 ESTIMATE OF ROTATION CORRECTION    6.054E-12
 MOMENT    EQUILIB. ACCEPTED BASED ON SMALL RESIDUAL AND ESTIMATED CORRECTION

  MAXIMUM HALF-INCREMENT FORCE RESIDUAL IS  -2.617E-02 AND OCCURS AT NODE         32 INSTANCE PART-1-3                                                                        
  MAXIMUM HALF-INCREMENT MOMENT RESIDUAL IS  -5.162E-02 AND OCCURS AT NODE         76 INSTANCE PART-1-3                                                                        
          TIME INCREMENT MAY NOW INCREASE TO    1.934E-06

 ITERATION SUMMARY FOR THE INCREMENT:   1 TOTAL ITERATIONS, OF WHICH
   0 ARE SEVERE DISCONTINUITY ITERATIONS AND  1 ARE EQUILIBRIUM ITERATIONS.

 TIME INCREMENT COMPLETED  1.547E-06,  FRACTION OF STEP COMPLETED  7.566E-06
 STEP TIME COMPLETED       7.566E-06,  TOTAL TIME COMPLETED        7.566E-06


  INCREMENT    17 STARTS. ATTEMPT NUMBER  1, TIME INCREMENT  1.934E-06
 
	SYMMETRIC DIRECT SPARSE SOLVER RUNNING ON
 	1 HOST:        1 MPI RANK  x 2 THREADS
 	NUMBER OF EQUATIONS:     2772
 	NUMBER OF RHS:           1
 	NUMBER OF FLOPS:         3.476e+07

     CHECK POINT   START OF SOLVER    

     CHECK POINT  END OF SOLVER       

       ELAPSED USER TIME (SEC)      =  0.10000    
       ELAPSED SYSTEM TIME (SEC)    =   0.0000    
       ELAPSED TOTAL CPU TIME (SEC) =  0.10000    
       ELAPSED WALLCLOCK TIME (SEC) =          0

               CONVERGENCE CHECKS FOR EQUILIBRIUM ITERATION     1


 AVERAGE FORCE                      1.983E-02   TIME AVG. FORCE       0.140    
 LARGEST RESIDUAL FORCE            -1.629E-07   AT NODE         42   DOF  1
   INSTANCE: PART-1-3                                                                        
 LARGEST INCREMENT OF DISP.        -1.547E-04   AT NODE         11   DOF  3
   INSTANCE: PART-1-2                                                                        
 LARGEST CORRECTION TO DISP.       -5.782E-06   AT NODE        121   DOF  2
   INSTANCE: PART-1-2                                                                        
 ESTIMATE OF DISP.    CORRECTION    7.788E-12
 FORCE     EQUILIB. ACCEPTED BASED ON SMALL RESIDUAL AND ESTIMATED CORRECTION

 AVERAGE MOMENT                     2.782E-04   TIME AVG. MOMENT      4.064E-04
 LARGEST RESIDUAL MOMENT           -2.502E-07   AT NODE         31   DOF  5
   INSTANCE: PART-1-3                                                                        
 LARGEST INCREMENT OF ROTATION      2.797E-05   AT NODE        121   DOF  5
   INSTANCE: PART-1-2                                                                        
 LARGEST CORRECTION TO ROTATION    -1.095E-05   AT NODE         54   DOF  5
   INSTANCE: PART-1-2                                                                        
 ESTIMATE OF ROTATION CORRECTION    1.708E-11
 MOMENT    EQUILIB. ACCEPTED BASED ON SMALL RESIDUAL AND ESTIMATED CORRECTION

  MAXIMUM HALF-INCREMENT FORCE RESIDUAL IS   3.258E-02 AND OCCURS AT NODE        109 INSTANCE PART-1-3                                                                        
  MAXIMUM HALF-INCREMENT MOMENT RESIDUAL IS   7.920E-02 AND OCCURS AT NODE         43 INSTANCE PART-1-3                                                                        
          TIME INCREMENT MAY NOW INCREASE TO    2.417E-06

 ITERATION SUMMARY FOR THE INCREMENT:   1 TOTAL ITERATIONS, OF WHICH
   0 ARE SEVERE DISCONTINUITY ITERATIONS AND  1 ARE EQUILIBRIUM ITERATIONS.

 TIME INCREMENT COMPLETED  1.934E-06,  FRACTION OF STEP COMPLETED  9.500E-06
 STEP TIME COMPLETED       9.500E-06,  TOTAL TIME COMPLETED        9.500E-06


  INCREMENT    18 STARTS. ATTEMPT NUMBER  1, TIME INCREMENT  2.417E-06
 
	SYMMETRIC DIRECT SPARSE SOLVER RUNNING ON
 	1 HOST:        1 MPI RANK  x 2 THREADS
 	NUMBER OF EQUATIONS:     2772
 	NUMBER OF RHS:           1
 	NUMBER OF FLOPS:         3.476e+07

     CHECK POINT   START OF SOLVER    

     CHECK POINT  END OF SOLVER       

       ELAPSED USER TIME (SEC)      =   0.0000    
       ELAPSED SYSTEM TIME (SEC)    =   0.0000    
       ELAPSED TOTAL CPU TIME (SEC) =   0.0000    
       ELAPSED WALLCLOCK TIME (SEC) =          0

               CONVERGENCE CHECKS FOR EQUILIBRIUM ITERATION     1


 AVERAGE FORCE                      8.275E-03   TIME AVG. FORCE       0.133    
 LARGEST RESIDUAL FORCE             3.247E-07   AT NODE         85   DOF  3
   INSTANCE: PART-1-3                                                                        
 LARGEST INCREMENT OF DISP.        -1.934E-04   AT NODE         11   DOF  3
   INSTANCE: PART-1-2                                                                        
 LARGEST CORRECTION TO DISP.        9.199E-06   AT NODE         98   DOF  1
   INSTANCE: PART-1-2                                                                        
 ESTIMATE OF DISP.    CORRECTION    2.126E-11
 FORCE     EQUILIB. ACCEPTED BASED ON SMALL RESIDUAL AND ESTIMATED CORRECTION

 AVERAGE MOMENT                     2.938E-04   TIME AVG. MOMENT      4.001E-04
 LARGEST RESIDUAL MOMENT            5.067E-07   AT NODE         86   DOF  5
   INSTANCE: PART-1-3                                                                        
 LARGEST INCREMENT OF ROTATION      3.371E-05   AT NODE         11   DOF  5
   INSTANCE: PART-1-2                                                                        
 LARGEST CORRECTION TO ROTATION     1.741E-05   AT NODE        100   DOF  5
   INSTANCE: PART-1-2                                                                        
 ESTIMATE OF ROTATION CORRECTION   -5.132E-11
 MOMENT    EQUILIB. ACCEPTED BASED ON SMALL RESIDUAL AND ESTIMATED CORRECTION

  MAXIMUM HALF-INCREMENT FORCE RESIDUAL IS  -3.142E-02 AND OCCURS AT NODE         43 INSTANCE PART-1-3                                                                        
  MAXIMUM HALF-INCREMENT MOMENT RESIDUAL IS  -0.109     AND OCCURS AT NODE         65 INSTANCE PART-1-3                                                                        
          TIME INCREMENT MAY NOW INCREASE TO    3.022E-06

 ITERATION SUMMARY FOR THE INCREMENT:   1 TOTAL ITERATIONS, OF WHICH
   0 ARE SEVERE DISCONTINUITY ITERATIONS AND  1 ARE EQUILIBRIUM ITERATIONS.

 TIME INCREMENT COMPLETED  2.417E-06,  FRACTION OF STEP COMPLETED  1.192E-05
 STEP TIME COMPLETED       1.192E-05,  TOTAL TIME COMPLETED        1.192E-05


  INCREMENT    19 STARTS. ATTEMPT NUMBER  1, TIME INCREMENT  3.022E-06
 
	SYMMETRIC DIRECT SPARSE SOLVER RUNNING ON
 	1 HOST:        1 MPI RANK  x 2 THREADS
 	NUMBER OF EQUATIONS:     2772
 	NUMBER OF RHS:           1
 	NUMBER OF FLOPS:         3.476e+07

     CHECK POINT   START OF SOLVER    

     CHECK POINT  END OF SOLVER       

       ELAPSED USER TIME (SEC)      =   0.0000    
       ELAPSED SYSTEM TIME (SEC)    =   0.0000    
       ELAPSED TOTAL CPU TIME (SEC) =   0.0000    
       ELAPSED WALLCLOCK TIME (SEC) =          0

               CONVERGENCE CHECKS FOR EQUILIBRIUM ITERATION     1


 AVERAGE FORCE                      9.443E-03   TIME AVG. FORCE       0.126    
 LARGEST RESIDUAL FORCE            -5.837E-07   AT NODE         64   DOF  1
   INSTANCE: PART-1-2                                                                        
 LARGEST INCREMENT OF DISP.        -2.417E-04   AT NODE         11   DOF  3
   INSTANCE: PART-1-2                                                                        
 LARGEST CORRECTION TO DISP.        1.303E-05   AT NODE         42   DOF  1
   INSTANCE: PART-1-2                                                                        
 ESTIMATE OF DISP.    CORRECTION    5.116E-11
 FORCE     EQUILIB. ACCEPTED BASED ON SMALL RESIDUAL AND ESTIMATED CORRECTION

 AVERAGE MOMENT                     2.820E-04   TIME AVG. MOMENT      3.939E-04
 LARGEST RESIDUAL MOMENT            8.907E-07   AT NODE         41   DOF  5
   INSTANCE: PART-1-2                                                                        
 LARGEST INCREMENT OF ROTATION      4.081E-05   AT NODE        121   DOF  5
[...]
          THE MOMENT    EQUILIBRIUM EQUATIONS HAVE CONVERGED

  MAXIMUM HALF-INCREMENT FORCE RESIDUAL IS    48.1     AND OCCURS AT NODE         66 INSTANCE PART-2-1                                                                        
  MAXIMUM HALF-INCREMENT MOMENT RESIDUAL IS    9.22     AND OCCURS AT NODE         65 INSTANCE PART-2-1                                                                        
          TIME INCREMENT MAY NOW INCREASE TO    4.137E-03

 ITERATION SUMMARY FOR THE INCREMENT:   4 TOTAL ITERATIONS, OF WHICH
   0 ARE SEVERE DISCONTINUITY ITERATIONS AND  4 ARE EQUILIBRIUM ITERATIONS.

 TIME INCREMENT COMPLETED  3.309E-03,  FRACTION OF STEP COMPLETED  0.317    
 STEP TIME COMPLETED       0.317    ,  TOTAL TIME COMPLETED        0.317    


  INCREMENT   162 STARTS. ATTEMPT NUMBER  1, TIME INCREMENT  4.137E-03
 
	SYMMETRIC DIRECT SPARSE SOLVER RUNNING ON
 	1 HOST:        1 MPI RANK  x 2 THREADS
 	NUMBER OF EQUATIONS:     2772
 	NUMBER OF RHS:           1
 	NUMBER OF FLOPS:         3.476e+07

     CHECK POINT   START OF SOLVER    

     CHECK POINT  END OF SOLVER       

       ELAPSED USER TIME (SEC)      =  0.10000    
       ELAPSED SYSTEM TIME (SEC)    =   0.0000    
       ELAPSED TOTAL CPU TIME (SEC) =  0.10000    
       ELAPSED WALLCLOCK TIME (SEC) =          0

               CONVERGENCE CHECKS FOR EQUILIBRIUM ITERATION     1


 AVERAGE FORCE                      0.203       TIME AVG. FORCE       7.272E-02
 LARGEST RESIDUAL FORCE             -1.47       AT NODE        110   DOF  1
   INSTANCE: PART-2-1                                                                        
 LARGEST INCREMENT OF DISP.          1.51       AT NODE          6   DOF  3
   INSTANCE: PART-1-1                                                                        
 LARGEST CORRECTION TO DISP.        0.488       AT NODE        116   DOF  3
   INSTANCE: PART-2-1                                                                        
          FORCE     EQUILIBRIUM NOT ACHIEVED WITHIN TOLERANCE.

 AVERAGE MOMENT                     0.655       TIME AVG. MOMENT      0.119    
 LARGEST RESIDUAL MOMENT             3.40       AT NODE         65   DOF  5
   INSTANCE: PART-2-1                                                                        
 LARGEST INCREMENT OF ROTATION     -0.131       AT NODE         56   DOF  5
   INSTANCE: PART-1-1                                                                        
 LARGEST CORRECTION TO ROTATION    -2.563E-02   AT NODE         56   DOF  5
   INSTANCE: PART-2-1                                                                        
          MOMENT    EQUILIBRIUM NOT ACHIEVED WITHIN TOLERANCE.
 
	SYMMETRIC DIRECT SPARSE SOLVER RUNNING ON
 	1 HOST:        1 MPI RANK  x 2 THREADS
 	NUMBER OF EQUATIONS:     2772
 	NUMBER OF RHS:           1
 	NUMBER OF FLOPS:         3.476e+07

     CHECK POINT   START OF SOLVER    

     CHECK POINT  END OF SOLVER       

       ELAPSED USER TIME (SEC)      =   0.0000    
       ELAPSED SYSTEM TIME (SEC)    =   0.0000    
       ELAPSED TOTAL CPU TIME (SEC) =   0.0000    
       ELAPSED WALLCLOCK TIME (SEC) =          0

               CONVERGENCE CHECKS FOR EQUILIBRIUM ITERATION     2


 AVERAGE FORCE                      0.181       TIME AVG. FORCE       7.259E-02
 LARGEST RESIDUAL FORCE              1.25       AT NODE         56   DOF  1
   INSTANCE: PART-1-1                                                                        
 LARGEST INCREMENT OF DISP.          1.33       AT NODE        116   DOF  3
   INSTANCE: PART-1-1                                                                        
 LARGEST CORRECTION TO DISP.       -0.183       AT NODE         60   DOF  3
   INSTANCE: PART-1-1                                                                        
          FORCE     EQUILIBRIUM NOT ACHIEVED WITHIN TOLERANCE.

 AVERAGE MOMENT                     0.618       TIME AVG. MOMENT      0.119    
 LARGEST RESIDUAL MOMENT           -1.769E-02   AT NODE         56   DOF  5
   INSTANCE: PART-1-1                                                                        
 LARGEST INCREMENT OF ROTATION     -0.110       AT NODE         56   DOF  5
   INSTANCE: PART-1-1                                                                        
 LARGEST CORRECTION TO ROTATION     2.111E-02   AT NODE         56   DOF  5
   INSTANCE: PART-1-1                                                                        
          MOMENT    EQUILIBRIUM NOT ACHIEVED WITHIN TOLERANCE.
 
	SYMMETRIC DIRECT SPARSE SOLVER RUNNING ON
 	1 HOST:        1 MPI RANK  x 2 THREADS
 	NUMBER OF EQUATIONS:     2772
 	NUMBER OF RHS:           1
 	NUMBER OF FLOPS:         3.476e+07

     CHECK POINT   START OF SOLVER    

     CHECK POINT  END OF SOLVER       

       ELAPSED USER TIME (SEC)      =   0.0000    
       ELAPSED SYSTEM TIME (SEC)    =   0.0000    
       ELAPSED TOTAL CPU TIME (SEC) =   0.0000    
       ELAPSED WALLCLOCK TIME (SEC) =          0

               CONVERGENCE CHECKS FOR EQUILIBRIUM ITERATION     3


 AVERAGE FORCE                      0.170       TIME AVG. FORCE       7.252E-02
 LARGEST RESIDUAL FORCE             0.216       AT NODE        100   DOF  1
   INSTANCE: PART-1-1                                                                        
 LARGEST INCREMENT OF DISP.          1.25       AT NODE        116   DOF  3
   INSTANCE: PART-1-1                                                                        
 LARGEST CORRECTION TO DISP.        0.106       AT NODE         93   DOF  3
   INSTANCE: PART-1-2                                                                        
          FORCE     EQUILIBRIUM NOT ACHIEVED WITHIN TOLERANCE.

 AVERAGE MOMENT                     0.614       TIME AVG. MOMENT      0.119    
 LARGEST RESIDUAL MOMENT            1.370E-02   AT NODE         57   DOF  5
   INSTANCE: PART-1-1                                                                        
 LARGEST INCREMENT OF ROTATION     -0.103       AT NODE         56   DOF  5
   INSTANCE: PART-1-1                                                                        
 LARGEST CORRECTION TO ROTATION     7.835E-03   AT NODE        112   DOF  5
   INSTANCE: PART-1-1                                                                        
          MOMENT    EQUILIBRIUM NOT ACHIEVED WITHIN TOLERANCE.
 
	SYMMETRIC DIRECT SPARSE SOLVER RUNNING ON
 	1 HOST:        1 MPI RANK  x 2 THREADS
 	NUMBER OF EQUATIONS:     2772
 	NUMBER OF RHS:           1
 	NUMBER OF FLOPS:         3.476e+07

     CHECK POINT   START OF SOLVER    

     CHECK POINT  END OF SOLVER       

       ELAPSED USER TIME (SEC)      =  0.10000    
       ELAPSED SYSTEM TIME (SEC)    =   0.0000    
       ELAPSED TOTAL CPU TIME (SEC) =  0.10000    
       ELAPSED WALLCLOCK TIME (SEC) =          0

               CONVERGENCE CHECKS FOR EQUILIBRIUM ITERATION     4


 AVERAGE FORCE                      0.172       TIME AVG. FORCE       7.253E-02
 LARGEST RESIDUAL FORCE             0.382       AT NODE         56   DOF  1
   INSTANCE: PART-1-1                                                                        
 LARGEST INCREMENT OF DISP.          1.13       AT NODE          6   DOF  3
   INSTANCE: PART-1-1                                                                        
 LARGEST CORRECTION TO DISP.       -0.120       AT NODE        116   DOF  3
   INSTANCE: PART-1-1                                                                        
          FORCE     EQUILIBRIUM NOT ACHIEVED WITHIN TOLERANCE.

 AVERAGE MOMENT                     0.614       TIME AVG. MOMENT      0.119    
 LARGEST RESIDUAL MOMENT            1.209E-03   AT NODE         59   DOF  5
   INSTANCE: PART-1-1                                                                        
 LARGEST INCREMENT OF ROTATION     -9.193E-02   AT NODE         56   DOF  5
   INSTANCE: PART-1-1                                                                        
 LARGEST CORRECTION TO ROTATION     1.116E-02   AT NODE         56   DOF  5
   INSTANCE: PART-1-1                                                                        
          MOMENT    EQUILIBRIUM NOT ACHIEVED WITHIN TOLERANCE.
 
	SYMMETRIC DIRECT SPARSE SOLVER RUNNING ON
 	1 HOST:        1 MPI RANK  x 2 THREADS
 	NUMBER OF EQUATIONS:     2772
 	NUMBER OF RHS:           1
 	NUMBER OF FLOPS:         3.476e+07

     CHECK POINT   START OF SOLVER    

     CHECK POINT  END OF SOLVER       

       ELAPSED USER TIME (SEC)      =   0.0000    
       ELAPSED SYSTEM TIME (SEC)    =   0.0000    
       ELAPSED TOTAL CPU TIME (SEC) =   0.0000    
       ELAPSED WALLCLOCK TIME (SEC) =          0

               CONVERGENCE CHECKS FOR EQUILIBRIUM ITERATION     5


 AVERAGE FORCE                      0.171       TIME AVG. FORCE       7.253E-02
 LARGEST RESIDUAL FORCE             2.781E-02   AT NODE         56   DOF  1
   INSTANCE: PART-1-1                                                                        
 LARGEST INCREMENT OF DISP.          1.09       AT NODE          6   DOF  3
   INSTANCE: PART-1-1                                                                        
 LARGEST CORRECTION TO DISP.       -3.390E-02   AT NODE          6   DOF  3
   INSTANCE: PART-1-1                                                                        
          FORCE     EQUILIBRIUM NOT ACHIEVED WITHIN TOLERANCE.

 AVERAGE MOMENT                     0.616       TIME AVG. MOMENT      0.119    
 LARGEST RESIDUAL MOMENT            1.915E-03   AT NODE         57   DOF  5
   INSTANCE: PART-1-1                                                                        
 LARGEST INCREMENT OF ROTATION     -8.901E-02   AT NODE         56   DOF  5
   INSTANCE: PART-1-1                                                                        
 LARGEST CORRECTION TO ROTATION     2.914E-03   AT NODE         56   DOF  5
   INSTANCE: PART-1-1                                                                        
          MOMENT    EQUILIBRIUM NOT ACHIEVED WITHIN TOLERANCE.
 
	SYMMETRIC DIRECT SPARSE SOLVER RUNNING ON
 	1 HOST:        1 MPI RANK  x 2 THREADS
 	NUMBER OF EQUATIONS:     2772
 	NUMBER OF RHS:           1
 	NUMBER OF FLOPS:         3.476e+07

     CHECK POINT   START OF SOLVER    

     CHECK POINT  END OF SOLVER       

       ELAPSED USER TIME (SEC)      =   0.0000    
       ELAPSED SYSTEM TIME (SEC)    =   0.0000    
       ELAPSED TOTAL CPU TIME (SEC) =   0.0000    
       ELAPSED WALLCLOCK TIME (SEC) =          1

               CONVERGENCE CHECKS FOR EQUILIBRIUM ITERATION     6


 AVERAGE FORCE                      0.170       TIME AVG. FORCE       7.252E-02
 LARGEST RESIDUAL FORCE             1.386E-02   AT NODE         56   DOF  1
   INSTANCE: PART-1-1                                                                        
 LARGEST INCREMENT OF DISP.          1.07       AT NODE          6   DOF  3
   INSTANCE: PART-1-1                                                                        
 LARGEST CORRECTION TO DISP.       -2.402E-02   AT NODE        116   DOF  3
   INSTANCE: PART-1-1                                                                        
          FORCE     EQUILIBRIUM NOT ACHIEVED WITHIN TOLERANCE.

 AVERAGE MOMENT                     0.616       TIME AVG. MOMENT      0.119    
 LARGEST RESIDUAL MOMENT            8.377E-05   AT NODE         57   DOF  5
   INSTANCE: PART-1-1                                                                        
 LARGEST INCREMENT OF ROTATION     -8.690E-02   AT NODE         56   DOF  5
   INSTANCE: PART-1-1                                                                        
 LARGEST CORRECTION TO ROTATION     2.114E-03   AT NODE         56   DOF  5
   INSTANCE: PART-1-1                                                                        
 ESTIMATE OF ROTATION CORRECTION    1.465E-04
 MOMENT    EQUILIB. ACCEPTED BASED ON SMALL RESIDUAL AND ESTIMATED CORRECTION
 
	SYMMETRIC DIRECT SPARSE SOLVER RUNNING ON
 	1 HOST:        1 MPI RANK  x 2 THREADS
 	NUMBER OF EQUATIONS:     2772
 	NUMBER OF RHS:           1
 	NUMBER OF FLOPS:         3.476e+07

     CHECK POINT   START OF SOLVER    

     CHECK POINT  END OF SOLVER       

       ELAPSED USER TIME (SEC)      =   0.0000    
       ELAPSED SYSTEM TIME (SEC)    =   0.0000    
       ELAPSED TOTAL CPU TIME (SEC) =   0.0000    
       ELAPSED WALLCLOCK TIME (SEC) =          0

               CONVERGENCE CHECKS FOR EQUILIBRIUM ITERATION     7


 AVERAGE FORCE                      0.170       TIME AVG. FORCE       7.252E-02
 LARGEST RESIDUAL FORCE             4.452E-05   AT NODE         56   DOF  1
   INSTANCE: PART-1-1                                                                        
 LARGEST INCREMENT OF DISP.          1.07       AT NODE          6   DOF  3
   INSTANCE: PART-1-1                                                                        
 LARGEST CORRECTION TO DISP.       -1.383E-03   AT NODE         61   DOF  3
   INSTANCE: PART-1-1                                                                        
          THE FORCE     EQUILIBRIUM EQUATIONS HAVE CONVERGED

 AVERAGE MOMENT                     0.617       TIME AVG. MOMENT      0.119    
 LARGEST RESIDUAL MOMENT            4.100E-06   AT NODE         57   DOF  5
   INSTANCE: PART-1-1                                                                        
 LARGEST INCREMENT OF ROTATION     -8.678E-02   AT NODE         56   DOF  5
   INSTANCE: PART-1-1                                                                        
 LARGEST CORRECTION TO ROTATION     1.191E-04   AT NODE         56   DOF  5
   INSTANCE: PART-1-1                                                                        
          THE MOMENT    EQUILIBRIUM EQUATIONS HAVE CONVERGED

  MAXIMUM HALF-INCREMENT FORCE RESIDUAL IS   -65.7     AND OCCURS AT NODE         66 INSTANCE PART-2-1                                                                        
  MAXIMUM HALF-INCREMENT MOMENT RESIDUAL IS   -8.76     AND OCCURS AT NODE         57 INSTANCE PART-1-1                                                                        
 NO TIME INCREMENT INCREASE DUE TO TIME INTEGRATION ACCURACY CONTROL

 ITERATION SUMMARY FOR THE INCREMENT:   7 TOTAL ITERATIONS, OF WHICH
   0 ARE SEVERE DISCONTINUITY ITERATIONS AND  7 ARE EQUILIBRIUM ITERATIONS.

 TIME INCREMENT COMPLETED  4.137E-03,  FRACTION OF STEP COMPLETED  0.321    
 STEP TIME COMPLETED       0.321    ,  TOTAL TIME COMPLETED        0.321    


  INCREMENT   163 STARTS. ATTEMPT NUMBER  1, TIME INCREMENT  4.137E-03
 
	SYMMETRIC DIRECT SPARSE SOLVER RUNNING ON
 	1 HOST:        1 MPI RANK  x 2 THREADS
 	NUMBER OF EQUATIONS:     2772
 	NUMBER OF RHS:           1
 	NUMBER OF FLOPS:         3.476e+07

     CHECK POINT   START OF SOLVER    

     CHECK POINT  END OF SOLVER       

       ELAPSED USER TIME (SEC)      =   0.0000    
       ELAPSED SYSTEM TIME (SEC)    =   0.0000    
       ELAPSED TOTAL CPU TIME (SEC) =   0.0000    
       ELAPSED WALLCLOCK TIME (SEC) =          0

               CONVERGENCE CHECKS FOR EQUILIBRIUM ITERATION     1


 AVERAGE FORCE                      0.197       TIME AVG. FORCE       7.329E-02
 LARGEST RESIDUAL FORCE              3.13       AT NODE         56   DOF  1
   INSTANCE: PART-1-1                                                                        
 LARGEST INCREMENT OF DISP.         0.594       AT NODE          6   DOF  3
   INSTANCE: PART-1-1                                                                        
 LARGEST CORRECTION TO DISP.       -0.355       AT NODE        117   DOF  1
   INSTANCE: PART-1-1                                                                        
          FORCE     EQUILIBRIUM NOT ACHIEVED WITHIN TOLERANCE.

 AVERAGE MOMENT                     0.659       TIME AVG. MOMENT      0.122    
 LARGEST RESIDUAL MOMENT            -2.51       AT NODE         57   DOF  5
   INSTANCE: PART-1-1                                                                        
 LARGEST INCREMENT OF ROTATION     -4.504E-02   AT NODE         56   DOF  5
   INSTANCE: PART-1-1                                                                        
 LARGEST CORRECTION TO ROTATION    -3.206E-02   AT NODE        121   DOF  5
   INSTANCE: PART-1-1                                                                        
          MOMENT    EQUILIBRIUM NOT ACHIEVED WITHIN TOLERANCE.
 
	SYMMETRIC DIRECT SPARSE SOLVER RUNNING ON
 	1 HOST:        1 MPI RANK  x 2 THREADS
 	NUMBER OF EQUATIONS:     2772
 	NUMBER OF RHS:           1
 	NUMBER OF FLOPS:         3.476e+07

     CHECK POINT   START OF SOLVER    

     CHECK POINT  END OF SOLVER       

       ELAPSED USER TIME (SEC)      =  0.10000    
       ELAPSED SYSTEM TIME (SEC)    =   0.0000    
       ELAPSED TOTAL CPU TIME (SEC) =  0.10000    
       ELAPSED WALLCLOCK TIME (SEC) =          0

               CONVERGENCE CHECKS FOR EQUILIBRIUM ITERATION     2


 AVERAGE FORCE                      0.174       TIME AVG. FORCE       7.314E-02
 LARGEST RESIDUAL FORCE            -0.422       AT NODE         66   DOF  1
   INSTANCE: PART-2-1                                                                        
 LARGEST INCREMENT OF DISP.         0.573       AT NODE          6   DOF  3
   INSTANCE: PART-1-1                                                                        
 LARGEST CORRECTION TO DISP.        0.153       AT NODE        116   DOF  3
   INSTANCE: PART-2-1                                                                        
          FORCE     EQUILIBRIUM NOT ACHIEVED WITHIN TOLERANCE.

 AVERAGE MOMENT                     0.636       TIME AVG. MOMENT      0.122    
 LARGEST RESIDUAL MOMENT            1.146E-02   AT NODE         57   DOF  5
   INSTANCE: PART-1-1                                                                        
 LARGEST INCREMENT OF ROTATION     -4.260E-02   AT NODE         56   DOF  5
   INSTANCE: PART-1-1                                                                        
 LARGEST CORRECTION TO ROTATION     1.219E-02   AT NODE         66   DOF  5
   INSTANCE: PART-2-1                                                                        
          MOMENT    EQUILIBRIUM NOT ACHIEVED WITHIN TOLERANCE.
 
	SYMMETRIC DIRECT SPARSE SOLVER RUNNING ON
 	1 HOST:        1 MPI RANK  x 2 THREADS
 	NUMBER OF EQUATIONS:     2772
 	NUMBER OF RHS:           1
 	NUMBER OF FLOPS:         3.476e+07

     CHECK POINT   START OF SOLVER    

     CHECK POINT  END OF SOLVER       

       ELAPSED USER TIME (SEC)      =  0.10000    
       ELAPSED SYSTEM TIME (SEC)    =   0.0000    
       ELAPSED TOTAL CPU TIME (SEC) =  0.10000    
       ELAPSED WALLCLOCK TIME (SEC) =          0

 ***ERROR: Process terminated by external request (SIGTERM or SIGINT received).



     ANALYSIS SUMMARY:
     TOTAL OF        163  INCREMENTS
                       7  CUTBACKS IN AUTOMATIC INCREMENTATION
                     448  ITERATIONS INCLUDING CONTACT ITERATIONS IF PRESENT
                     450  PASSES THROUGH THE EQUATION SOLVER OF WHICH 
                     450  INVOLVE MATRIX DECOMPOSITION, INCLUDING
                       2  DECOMPOSITION(S) OF THE MASS MATRIX
                       1  REORDERING OF EQUATIONS TO MINIMIZE WAVEFRONT
                       0  ADDITIONAL RESIDUAL EVALUATIONS FOR LINE SEARCHES
                       0  ADDITIONAL OPERATOR EVALUATIONS FOR LINE SEARCHES
                      93  WARNING MESSAGES DURING USER INPUT PROCESSING
                      19  WARNING MESSAGES DURING ANALYSIS
                       0  ANALYSIS WARNINGS ARE NUMERICAL PROBLEM MESSAGES
                      17  ANALYSIS WARNINGS ARE NEGATIVE EIGENVALUE MESSAGES
                       1  ERROR MESSAGES



     JOB TIME SUMMARY
       USER TIME (SEC)      =   49.500    
       SYSTEM TIME (SEC)    =   6.4000    
       TOTAL CPU TIME (SEC) =   55.900    
       WALLCLOCK TIME (SEC) =         47
