1

   Abaqus 2022                                  Date 19-Dez-2023   Time 15:09:58
   For use by MONTANUNIVERSITAT LEOBEN under license from Dassault Systemes or its subsidiary.

                                                                                 
                                                                                 
 STEP    1     INCREMENT     1     STEP TIME    0.00    


                        S T E P       1     D Y N A M I C   A N A L Y S I S - I M P L I C I T  I N T E G R A T I O N


                                                                                          

          DYNAMIC APPLICATION PACKED SCHEME IS                 MODERATE DISSIPATION
          HILBER-HUGHES-TAYLOR (HHT) TIME INTEGRATOR IS USED

     AUTOMATIC TIME CONTROL WITH -
          A SUGGESTED INITIAL TIME INCREMENT OF                 1.00    
          AND A TOTAL TIME PERIOD OF                            1.00    
          THE MINIMUM TIME INCREMENT ALLOWED IS                1.000E-10
          THE MAXIMUM TIME INCREMENT ALLOWED IS                 1.00    

          THE HALF-INCREMENT RESIDUALS WILL NOT BE CALCULATED

          INITIAL ACCELERATIONS WILL NOT BE CALCULATED

          HILBER-HUGHES-TAYLOR METHOD PARAMETERS:  ALPHA   IS  -0.414214    
                                                   BETA    IS   0.500000    
                                                   GAMMA   IS   0.914214    
          CONTACT IMPACT/RELEASE COMPUTATIONS ARE SKIPPED
          AGGRESSIVE   TIME INCREMENTATION IS USED
          STEP AMPLITUDE IS                                    STEP

 CONVERGENCE TOLERANCE PARAMETERS FOR FORCE    
     CRITERION FOR RESIDUAL FORCE     FOR A NONLINEAR PROBLEM          5.000E-03
     CRITERION FOR DISP.    CORRECTION IN A NONLINEAR PROBLEM          1.000E-02
     INITIAL VALUE OF TIME AVERAGE FORCE                               1.000E-02
     AVERAGE FORCE     IS TIME AVERAGE FORCE    
     ALTERNATE CRIT. FOR RESIDUAL FORCE     FOR A NONLINEAR PROBLEM    2.000E-02
     CRITERION FOR ZERO FORCE     RELATIVE TO TIME AVRG. FORCE         1.000E-05
     CRITERION FOR RESIDUAL FORCE     WHEN THERE IS ZERO FLUX          1.000E-05
     CRITERION FOR DISP.    CORRECTION WHEN THERE IS ZERO FLUX         1.000E-03
     CRITERION FOR RESIDUAL FORCE     FOR A LINEAR INCREMENT           1.000E-08
     FIELD CONVERSION RATIO                                             1.00    
     CRITERION FOR ZERO FORCE     REL. TO TIME AVRG. MAX. FORCE        1.000E-05
     CRITERION FOR ZERO DISP.    RELATIVE TO CHARACTERISTIC LENGTH     1.000E-08

 CONVERGENCE TOLERANCE PARAMETERS FOR MOMENT   
     CRITERION FOR RESIDUAL MOMENT    FOR A NONLINEAR PROBLEM          5.000E-03
     CRITERION FOR ROTATION CORRECTION IN A NONLINEAR PROBLEM          1.000E-02
     INITIAL VALUE OF TIME AVERAGE MOMENT                              1.000E-02
     AVERAGE MOMENT    IS TIME AVERAGE MOMENT   
     ALTERNATE CRIT. FOR RESIDUAL MOMENT    FOR A NONLINEAR PROBLEM    2.000E-02
     CRITERION FOR ZERO MOMENT    RELATIVE TO TIME AVRG. MOMENT        1.000E-05
     CRITERION FOR RESIDUAL MOMENT    WHEN THERE IS ZERO FLUX          1.000E-05
     CRITERION FOR ROTATION CORRECTION WHEN THERE IS ZERO FLUX         1.000E-03
     CRITERION FOR RESIDUAL MOMENT    FOR A LINEAR INCREMENT           1.000E-08
     FIELD CONVERSION RATIO                                             1.00    
     CRITERION FOR ZERO MOMENT    REL. TO TIME AVRG. MAX. MOMENT       1.000E-05

     VOLUMETRIC STRAIN COMPATIBILITY TOLERANCE FOR HYBRID SOLIDS       1.000E-05
     AXIAL STRAIN COMPATIBILITY TOLERANCE FOR HYBRID BEAMS             1.000E-05
     TRANS. SHEAR STRAIN COMPATIBILITY TOLERANCE FOR HYBRID BEAMS      1.000E-05
     SOFT CONTACT CONSTRAINT COMPATIBILITY TOLERANCE FOR P>P0          5.000E-03
     SOFT CONTACT CONSTRAINT COMPATIBILITY TOLERANCE FOR P=0.0         0.100    
     CONTACT FORCE ERROR TOLERANCE FOR CONVERT SDI=YES                 1.00    
     DISPLACEMENT COMPATIBILITY TOLERANCE FOR DCOUP ELEMENTS           1.000E-05
     ROTATION COMPATIBILITY TOLERANCE FOR DCOUP ELEMENTS               1.000E-05

 EQUILIBRIUM WILL BE CHECKED FOR SEVERE DISCONTINUITY ITERATIONS

 TIME INCREMENTATION CONTROL PARAMETERS:
     FIRST EQUILIBRIUM ITERATION FOR CONSECUTIVE DIVERGENCE CHECK              4
     EQUILIBRIUM ITERATION AT WHICH LOG. CONVERGENCE RATE CHECK BEGINS         8
     EQUILIBRIUM ITERATION AFTER WHICH ALTERNATE RESIDUAL IS USED              9
     MAXIMUM EQUILIBRIUM ITERATIONS ALLOWED                                   16
     EQUILIBRIUM ITERATION COUNT FOR CUT-BACK IN NEXT INCREMENT               10
     MAXIMUM EQUILIB. ITERS IN TWO INCREMENTS FOR TIME INCREMENT INCREASE      4
     MAXIMUM ITERATIONS FOR SEVERE DISCONTINUITIES                            50
     MAXIMUM ATTEMPTS ALLOWED IN AN INCREMENT                                  5
     MAXIMUM DISCON. ITERS IN TWO INCREMENTS FOR TIME INCREMENT INCREASE      50
     MAXIMUM CONTACT AUGMENTATIONS FOR *SURFACE BEHAVIOR,AUGMENTED LAGRANGE   50
     CUT-BACK FACTOR AFTER DIVERGENCE                                 0.2500    
     CUT-BACK FACTOR FOR TOO SLOW CONVERGENCE                         0.5000    
     CUT-BACK FACTOR AFTER TOO MANY EQUILIBRIUM ITERATIONS            0.7500    
     CUT-BACK FACTOR AFTER TOO MANY SEVERE DISCONTINUITY ITERATIONS   0.2500    
     CUT-BACK FACTOR AFTER PROBLEMS IN ELEMENT ASSEMBLY               0.2500    
     INCREASE FACTOR AFTER TWO INCREMENTS THAT CONVERGE QUICKLY        1.500    
     MAX. TIME INCREMENT INCREASE FACTOR ALLOWED                       1.500    
     MAX. TIME INCREMENT INCREASE FACTOR ALLOWED (DYNAMICS)            1.250    
     MAX. TIME INCREMENT INCREASE FACTOR ALLOWED (DIFFUSION)           2.000    
     MINIMUM TIME INCREMENT RATIO FOR EXTRAPOLATION TO OCCUR          0.1000    
     MAX. RATIO OF TIME INCREMENT TO STABILITY LIMIT                   1.000    
     FRACTION OF STABILITY LIMIT FOR NEW TIME INCREMENT               0.9500    
     TIME INCREMENT INCREASE FACTOR BEFORE A TIME POINT                1.000    

 CONTACT CONTROLS APPLIED TO ALL CONTACT PAIRS:
     GLOBAL STABILIZATION CONTROL IS NOT USED
     RELATIVE PENETRATION TOLERANCE FOR AUGMENTED LAGRANGE CONTACT:
          FINITE-SLIDING SURFACE-TO-SURFACE                            5.000E-02
          OTHERWISE                                                    1.000E-03

          PRINT OF INCREMENT NUMBER, TIME, ETC., EVERY    1  INCREMENTS

     THE MAXIMUM NUMBER OF INCREMENTS IN THIS STEP IS                   10000

          LARGE DISPLACEMENT THEORY WILL BE USED

     LINEAR EXTRAPOLATION WILL BE USED

     CHARACTERISTIC ELEMENT LENGTH      6.50    

     DETAILS REGARDING ACTUAL SOLUTION WAVEFRONT REQUESTED

     DETAILED OUTPUT OF DIAGNOSTICS TO DATABASE REQUESTED

     PRINT OF INCREMENT NUMBER, TIME, ETC., TO THE MESSAGE FILE EVERY     1  INCREMENTS

     ELEMENT OPERATIONS WILL BE CARRIED OUT IN PARALLEL USING   2 THREADS ON 1 DOMAIN

     PARALLEL CONTACT TRACKING ENABLED


     COLLECTING MODEL CONSTRAINT INFORMATION FOR OVERCONSTRAINT CHECKS

     COLLECTING STEP CONSTRAINT INFORMATION FOR OVERCONSTRAINT CHECKS

 ***WARNING: AT LEAST ONE OF THE NODES OF CONNECTOR ELEMENT 1 (ASSEMBLY) DOES 
             NOT HAVE ANY MASS ASSOCIATED WITH IT. THIS COULD LEAD TO EQUATION 
             SOLVER ISSUES (ZERO PIVOTS, NUMERICAL SINGULARITIES, etc.) AND 
             HENCE TO INCORRECT SOLUTIONS WHEN THE CONNECTOR ELEMENT IS 
             ENFORCING KINEMATIC CONSTRAINTS (FROM EITHER INTRINSIC, CONNECTOR 
             STOP/LOCK, or CONNECTOR MOTION). PLEASE ATTACH THE CONNECTOR NODES 
             TO ELEMENTS FOR WHICH MASS IS DEFINED (SUCH AS ELEMENTS TYPE MASS 
             WITH A SMALL MASS) TO RESOLVE THE PROBLEM.

 ***WARNING: AT LEAST ONE OF THE NODES OF CONNECTOR ELEMENT 1 (ASSEMBLY) DOES 
             NOT HAVE ANY ROTARY INERTIA ASSOCIATED WITH IT. THIS COULD LEAD TO 
             EQUATION SOLVER ISSUES (ZERO PIVOTS, NUMERICAL SINGULARITIES, 
             etc.) AND HENCE TO INCORRECT SOLUTIONS WHEN THE CONNECTOR ELEMENT 
             IS ENFORCING KINEMATIC CONSTRAINTS (FROM EITHER INTRINSIC, 
             CONNECTOR STOP/LOCK, or CONNECTOR MOTION). PLEASE ATTACH THE 
             CONNECTOR NODES TO ELEMENTS FOR WHICH ROTARY INERTIA IS DEFINED 
             (SUCH AS ELEMENTS TYPE ROTARYI) TO RESOLVE THE PROBLEM.


  INCREMENT     1 STARTS. ATTEMPT NUMBER  1, TIME INCREMENT   1.00    
 
     INITIAL ELEMENT LOAD BALANCE
            DOMAIN    1     THREAD    NUMBER OF ELEMENTS
                              1            329
                              2            328

 ***WARNING: THERE ARE 2 UNCONNECTED REGIONS IN THE MODEL.

 ***NOTE: SFM TYPE SURFACE ELEMENTS USED TO DEFINE CONTACT SURFACES NOT PART OF 
          A RIGID BODY MAY INCREASE THE NUMBER OR UNCONNECTED REGIONS REPORTED.
 
	SYMMETRIC DIRECT SPARSE SOLVER RUNNING ON
 	1 HOST:        1 MPI RANK  x 2 THREADS
 	NUMBER OF EQUATIONS:     2778
 	NUMBER OF RHS:           1
 	NUMBER OF FLOPS:         3.396e+07

     CHECK POINT   START OF SOLVER    

     CHECK POINT  END OF SOLVER       

       ELAPSED USER TIME (SEC)      =  0.10000    
       ELAPSED SYSTEM TIME (SEC)    =   0.0000    
       ELAPSED TOTAL CPU TIME (SEC) =  0.10000    
       ELAPSED WALLCLOCK TIME (SEC) =          0

                   88 SEVERE DISCONTINUITIES OCCURRED DURING THIS ITERATION.
                   88 POINTS CHANGED FROM OPEN TO CLOSED

               CONVERGENCE CHECKS FOR SEVERE DISCONTINUITY ITERATION     1

   MAX. PENETRATION ERROR 12.7095      AT NODE PART-1-2.49 OF CONTACT PAIR 
   (GENERAL_CONTACT_FACES_4,GENERAL_CONTACT_FACES_1)
   MAX. CONTACT FORCE ERROR 535.064       AT NODE PART-1-2.61 OF CONTACT PAIR 
   (GENERAL_CONTACT_FACES_4,GENERAL_CONTACT_FACES_1)
          PENETRATION ERROR TOO LARGE COMPARED TO DISPLACEMENT INCREMENT.

 AVERAGE FORCE                       1.95       TIME AVG. FORCE        1.95    
 LARGEST RESIDUAL FORCE              4.11       AT NODE         61   DOF  1
   INSTANCE: PART-1-3                                                                        
 LARGEST INCREMENT OF DISP.         -80.0       AT NODE         66   DOF  3
   INSTANCE: PART-1-1                                                                        
 LARGEST CORRECTION TO DISP.        -80.0       AT NODE         66   DOF  3
   INSTANCE: PART-1-1                                                                        
          FORCE     EQUILIBRIUM NOT ACHIEVED WITHIN TOLERANCE.
 

 ***WARNING: THE AVERAGE FORCE USED TO ENFORCE CONTACT CONSTRAINTS AT NODE 
             PART-1-2.61 IS 565.009E+03   TIMES LARGER THAN THE AVERAGE AT THE 
             OTHER NODES IN THE MODEL.

 AVERAGE MOMENT                     2.385E-05   TIME AVG. MOMENT       12.7    
                                                (FROM FORCE     FIELD)
 LARGEST RESIDUAL MOMENT            2.337E-08   AT NODE         57   DOF  5
   INSTANCE: PART-1-3                                                                        
 LARGEST INCREMENT OF ROTATION      5.758E-05   AT NODE          1   DOF  5
   INSTANCE: PART-1-3                                                                        
 LARGEST CORRECTION TO ROTATION     5.758E-05   AT NODE          1   DOF  5
   INSTANCE: PART-1-3                                                                        
          THERE IS ZERO MOMENT    EVERYWHERE
 
	SYMMETRIC DIRECT SPARSE SOLVER RUNNING ON
 	1 HOST:        1 MPI RANK  x 2 THREADS
 	NUMBER OF EQUATIONS:     2778
 	NUMBER OF RHS:           1
 	NUMBER OF FLOPS:         4.637e+07

     CHECK POINT   START OF SOLVER    

     CHECK POINT  END OF SOLVER       

       ELAPSED USER TIME (SEC)      =   0.0000    
       ELAPSED SYSTEM TIME (SEC)    =   0.0000    
       ELAPSED TOTAL CPU TIME (SEC) =   0.0000    
       ELAPSED WALLCLOCK TIME (SEC) =          0
 

 ***WARNING: THE SYSTEM MATRIX HAS 1 NEGATIVE EIGENVALUES.

     NEGATIVE EIGENVALUES MEAN THAT THE SYSTEM MATRIX IS NOT 
     POSITIVE DEFINITE:
     FOR EXAMPLE, A BIFURCATION (BUCKLING) LOAD MAY HAVE BEEN EXCEEDED.

                  272 SEVERE DISCONTINUITIES OCCURRED DURING THIS ITERATION.
                  228 POINTS CHANGED FROM OPEN TO CLOSED
                   44 POINTS CHANGED FROM CLOSED TO OPEN

               CONVERGENCE CHECKS FOR SEVERE DISCONTINUITY ITERATION     2

   MAX. PENETRATION ERROR 62.6911      AT NODE PART-1-1.88 OF CONTACT PAIR 
   (GENERAL_CONTACT_FACES_5,GENERAL_CONTACT_FACES_1)
   MAX. CONTACT FORCE ERROR 2.60477E+03 AT NODE PART-2-1.68 OF CONTACT PAIR 
   (GENERAL_CONTACT_FACES_2,GENERAL_CONTACT_FACES_1)
          PENETRATION ERROR TOO LARGE COMPARED TO DISPLACEMENT INCREMENT.

 AVERAGE FORCE                       63.3       TIME AVG. FORCE        63.3    
 LARGEST RESIDUAL FORCE              757.       AT NODE        100   DOF  3
   INSTANCE: PART-1-1                                                                        
 LARGEST INCREMENT OF DISP.         -82.3       AT NODE        119   DOF  3
   INSTANCE: PART-1-2                                                                        
 LARGEST CORRECTION TO DISP.         24.2       AT NODE          1   DOF  3
   INSTANCE: PART-2-1                                                                        
          FORCE     EQUILIBRIUM NOT ACHIEVED WITHIN TOLERANCE.

 AVERAGE MOMENT                      62.9       TIME AVG. MOMENT       62.9    
 LARGEST RESIDUAL MOMENT            4.190E+03   AT NODE         29   DOF  5
   INSTANCE: PART-1-3                                                                        
 LARGEST INCREMENT OF ROTATION       1.08       AT NODE        118   DOF  5
   INSTANCE: PART-1-2                                                                        
 LARGEST CORRECTION TO ROTATION      1.08       AT NODE        118   DOF  5
   INSTANCE: PART-1-2                                                                        
          MOMENT    EQUILIBRIUM NOT ACHIEVED WITHIN TOLERANCE.
 
	SYMMETRIC DIRECT SPARSE SOLVER RUNNING ON
 	1 HOST:        1 MPI RANK  x 2 THREADS
 	NUMBER OF EQUATIONS:     2778
 	NUMBER OF RHS:           1
 	NUMBER OF FLOPS:         5.525e+07

     CHECK POINT   START OF SOLVER    

     CHECK POINT  END OF SOLVER       

       ELAPSED USER TIME (SEC)      =  0.10000    
       ELAPSED SYSTEM TIME (SEC)    =   0.0000    
       ELAPSED TOTAL CPU TIME (SEC) =  0.10000    
       ELAPSED WALLCLOCK TIME (SEC) =          0
 

 ***WARNING: THE SYSTEM MATRIX HAS 87 NEGATIVE EIGENVALUES.
             EXPLANATIONS ARE SUGGESTED AFTER THE FIRST OCCURRENCE OF THIS MESSAGE.

                  216 SEVERE DISCONTINUITIES OCCURRED DURING THIS ITERATION.
                  153 POINTS CHANGED FROM OPEN TO CLOSED
                   63 POINTS CHANGED FROM CLOSED TO OPEN

               CONVERGENCE CHECKS FOR SEVERE DISCONTINUITY ITERATION     3

   MAX. PENETRATION ERROR 24.0078      AT NODE PART-1-2.3 OF CONTACT PAIR 
   (GENERAL_CONTACT_FACES_4,GENERAL_CONTACT_FACES_1)
   MAX. CONTACT FORCE ERROR -1.49205E+03 AT NODE PART-1-2.81 OF CONTACT PAIR 
   (GENERAL_CONTACT_FACES_4,GENERAL_CONTACT_FACES_1)
          PENETRATION ERROR TOO LARGE COMPARED TO DISPLACEMENT INCREMENT.

 AVERAGE FORCE                       142.       TIME AVG. FORCE        142.    
 LARGEST RESIDUAL FORCE            -6.342E+03   AT NODE         58   DOF  3
   INSTANCE: PART-1-3                                                                        
 LARGEST INCREMENT OF DISP.         -88.0       AT NODE          9   DOF  3
   INSTANCE: PART-1-2                                                                        
 LARGEST CORRECTION TO DISP.         73.4       AT NODE         22   DOF  3
   INSTANCE: PART-1-1                                                                        
          FORCE     EQUILIBRIUM NOT ACHIEVED WITHIN TOLERANCE.

 AVERAGE MOMENT                      525.       TIME AVG. MOMENT       525.    
 LARGEST RESIDUAL MOMENT           -3.471E+04   AT NODE         59   DOF  5
   INSTANCE: PART-1-3                                                                        
 LARGEST INCREMENT OF ROTATION       4.63       AT NODE        120   DOF  5
   INSTANCE: PART-1-3                                                                        
 LARGEST CORRECTION TO ROTATION     -13.6       AT NODE          4   DOF  6
   INSTANCE: PART-1-2                                                                        
          MOMENT    EQUILIBRIUM NOT ACHIEVED WITHIN TOLERANCE.
 
	SYMMETRIC DIRECT SPARSE SOLVER RUNNING ON
 	1 HOST:        1 MPI RANK  x 2 THREADS
 	NUMBER OF EQUATIONS:     2778
 	NUMBER OF RHS:           1
 	NUMBER OF FLOPS:         1.626e+08

     CHECK POINT   START OF SOLVER    

     CHECK POINT  END OF SOLVER       

       ELAPSED USER TIME (SEC)      =   0.0000    
       ELAPSED SYSTEM TIME (SEC)    =   0.0000    
       ELAPSED TOTAL CPU TIME (SEC) =   0.0000    
       ELAPSED WALLCLOCK TIME (SEC) =          0
 

 ***WARNING: THE SYSTEM MATRIX HAS 418 NEGATIVE EIGENVALUES.
             EXPLANATIONS ARE SUGGESTED AFTER THE FIRST OCCURRENCE OF THIS MESSAGE.

 ***WARNING: CONVERGENCE JUDGED UNLIKELY.  INCREMENT WILL BE ATTEMPTED AGAIN 
             WITH A TIME INCREMENT OF 0.25000


  INCREMENT     1 STARTS. ATTEMPT NUMBER  2, TIME INCREMENT  0.250    
 
	SYMMETRIC DIRECT SPARSE SOLVER RUNNING ON
 	1 HOST:        1 MPI RANK  x 2 THREADS
 	NUMBER OF EQUATIONS:     2778
 	NUMBER OF RHS:           1
 	NUMBER OF FLOPS:         6.692e+07

     CHECK POINT   START OF SOLVER    

     CHECK POINT  END OF SOLVER       

       ELAPSED USER TIME (SEC)      =   0.0000    
       ELAPSED SYSTEM TIME (SEC)    =   0.0000    
       ELAPSED TOTAL CPU TIME (SEC) =   0.0000    
       ELAPSED WALLCLOCK TIME (SEC) =          1

                   66 SEVERE DISCONTINUITIES OCCURRED DURING THIS ITERATION.
                   66 POINTS CHANGED FROM OPEN TO CLOSED

               CONVERGENCE CHECKS FOR SEVERE DISCONTINUITY ITERATION     1

   MAX. PENETRATION ERROR 9.90841     AT NODE PART-1-1.53 OF CONTACT PAIR 
   (GENERAL_CONTACT_FACES_5,GENERAL_CONTACT_FACES_1)
   MAX. CONTACT FORCE ERROR 417.870       AT NODE PART-1-1.64 OF CONTACT PAIR 
   (GENERAL_CONTACT_FACES_5,GENERAL_CONTACT_FACES_1)
          PENETRATION ERROR TOO LARGE COMPARED TO DISPLACEMENT INCREMENT.

 AVERAGE FORCE                       1.23       TIME AVG. FORCE        1.23    
 LARGEST RESIDUAL FORCE              2.83       AT NODE         64   DOF  1
   INSTANCE: PART-1-1                                                                        
 LARGEST INCREMENT OF DISP.         -20.0       AT NODE         11   DOF  3
   INSTANCE: PART-1-2                                                                        
 LARGEST CORRECTION TO DISP.        -20.0       AT NODE         11   DOF  3
   INSTANCE: PART-1-2                                                                        
          FORCE     EQUILIBRIUM NOT ACHIEVED WITHIN TOLERANCE.
 

 ***WARNING: THE AVERAGE FORCE USED TO ENFORCE CONTACT CONSTRAINTS AT NODE 
             PART-1-1.64 IS 103.984E+03   TIMES LARGER THAN THE AVERAGE AT THE 
             OTHER NODES IN THE MODEL.

 AVERAGE MOMENT                     9.463E-05   TIME AVG. MOMENT      9.463E-05
 LARGEST RESIDUAL MOMENT            2.301E-07   AT NODE         65   DOF  5
   INSTANCE: PART-2-1                                                                        
 LARGEST INCREMENT OF ROTATION      1.417E-04   AT NODE        121   DOF  5
   INSTANCE: PART-2-1                                                                        
 LARGEST CORRECTION TO ROTATION     1.417E-04   AT NODE        121   DOF  5
   INSTANCE: PART-2-1                                                                        
          ROTATION CORRECTION TOO LARGE COMPARED TO ROTATION INCREMENT
 
	SYMMETRIC DIRECT SPARSE SOLVER RUNNING ON
 	1 HOST:        1 MPI RANK  x 2 THREADS
 	NUMBER OF EQUATIONS:     2778
 	NUMBER OF RHS:           1
 	NUMBER OF FLOPS:         4.675e+07

     CHECK POINT   START OF SOLVER    

     CHECK POINT  END OF SOLVER       

       ELAPSED USER TIME (SEC)      =  0.10000    
       ELAPSED SYSTEM TIME (SEC)    =   0.0000    
       ELAPSED TOTAL CPU TIME (SEC) =  0.10000    
       ELAPSED WALLCLOCK TIME (SEC) =          0
 

 ***WARNING: THE SYSTEM MATRIX HAS 1 NEGATIVE EIGENVALUES.
             EXPLANATIONS ARE SUGGESTED AFTER THE FIRST OCCURRENCE OF THIS MESSAGE.

 ***WARNING: DISPLACEMENT INCREMENT FOR CONTACT IS TOO BIG.

 ***WARNING: DISPLACEMENT INCREMENT FOR CONTACT IS TOO BIG.

 ***WARNING: DISPLACEMENT INCREMENT FOR CONTACT IS TOO BIG.

 ***WARNING: CONVERGENCE JUDGED UNLIKELY.  INCREMENT WILL BE ATTEMPTED AGAIN 
             WITH A TIME INCREMENT OF 6.25000E-02


  INCREMENT     1 STARTS. ATTEMPT NUMBER  3, TIME INCREMENT  6.250E-02
 
	SYMMETRIC DIRECT SPARSE SOLVER RUNNING ON
 	1 HOST:        1 MPI RANK  x 2 THREADS
 	NUMBER OF EQUATIONS:     2778
 	NUMBER OF RHS:           1
 	NUMBER OF FLOPS:         4.049e+07

     CHECK POINT   START OF SOLVER    

     CHECK POINT  END OF SOLVER       

       ELAPSED USER TIME (SEC)      =  0.10000    
       ELAPSED SYSTEM TIME (SEC)    =   0.0000    
       ELAPSED TOTAL CPU TIME (SEC) =  0.10000    
       ELAPSED WALLCLOCK TIME (SEC) =          0

                   44 SEVERE DISCONTINUITIES OCCURRED DURING THIS ITERATION.
                   44 POINTS CHANGED FROM OPEN TO CLOSED

               CONVERGENCE CHECKS FOR SEVERE DISCONTINUITY ITERATION     1

   MAX. PENETRATION ERROR 2.81953     AT NODE PART-1-1.55 OF CONTACT PAIR 
   (GENERAL_CONTACT_FACES_5,GENERAL_CONTACT_FACES_1)
   MAX. CONTACT FORCE ERROR 167.739       AT NODE PART-1-1.66 OF CONTACT PAIR 
   (GENERAL_CONTACT_EDGES_5,GENERAL_CONTACT_FACES_1)
          PENETRATION ERROR TOO LARGE COMPARED TO DISPLACEMENT INCREMENT.

 AVERAGE FORCE                      0.477       TIME AVG. FORCE       0.477    
 LARGEST RESIDUAL FORCE              4.62       AT NODE         66   DOF  3
   INSTANCE: PART-1-1                                                                        
 LARGEST INCREMENT OF DISP.         -5.00       AT NODE         11   DOF  3
   INSTANCE: PART-1-2                                                                        
 LARGEST CORRECTION TO DISP.        -5.00       AT NODE         11   DOF  3
   INSTANCE: PART-1-2                                                                        
          FORCE     EQUILIBRIUM NOT ACHIEVED WITHIN TOLERANCE.
 

 ***WARNING: THE AVERAGE FORCE USED TO ENFORCE CONTACT CONSTRAINTS AT NODE 
             PART-1-1.66 IS 24.9085E+03  TIMES LARGER THAN THE AVERAGE AT THE 
             OTHER NODES IN THE MODEL.

 AVERAGE MOMENT                     3.771E-04   TIME AVG. MOMENT      3.771E-04
 LARGEST RESIDUAL MOMENT            4.050E-06   AT NODE         65   DOF  5
   INSTANCE: PART-2-1                                                                        
 LARGEST INCREMENT OF ROTATION      6.909E-04   AT NODE        121   DOF  5
   INSTANCE: PART-2-1                                                                        
 LARGEST CORRECTION TO ROTATION     6.909E-04   AT NODE        121   DOF  5
   INSTANCE: PART-2-1                                                                        
          MOMENT    EQUILIBRIUM NOT ACHIEVED WITHIN TOLERANCE.
 
	SYMMETRIC DIRECT SPARSE SOLVER RUNNING ON
 	1 HOST:        1 MPI RANK  x 2 THREADS
 	NUMBER OF EQUATIONS:     2778
 	NUMBER OF RHS:           1
 	NUMBER OF FLOPS:         3.624e+07

     CHECK POINT   START OF SOLVER    

     CHECK POINT  END OF SOLVER       

       ELAPSED USER TIME (SEC)      =   0.0000    
       ELAPSED SYSTEM TIME (SEC)    =   0.0000    
       ELAPSED TOTAL CPU TIME (SEC) =   0.0000    
       ELAPSED WALLCLOCK TIME (SEC) =          0

                   18 SEVERE DISCONTINUITIES OCCURRED DURING THIS ITERATION.
                   18 POINTS CHANGED FROM CLOSED TO OPEN

               CONVERGENCE CHECKS FOR SEVERE DISCONTINUITY ITERATION     2

   MAX. PENETRATION ERROR -1.90503E-12 AT NODE PART-2-1.1 OF CONTACT PAIR 
   (GENERAL_CONTACT_EDGES_2,GENERAL_CONTACT_FACES_1)
   MAX. CONTACT FORCE ERROR -1.03564     AT NODE PART-1-1.99 OF CONTACT PAIR 
   (GENERAL_CONTACT_EDGES_5,GENERAL_CONTACT_FACES_1)
          THE CONTACT CONSTRAINT ERRORS ARE WITHIN THE TOLERANCES.

 AVERAGE FORCE                       58.3       TIME AVG. FORCE        58.3    
 LARGEST RESIDUAL FORCE             2.305E+03   AT NODE         22   DOF  3
   INSTANCE: PART-1-1                                                                        
 LARGEST INCREMENT OF DISP.         -10.3       AT NODE          5   DOF  1
   INSTANCE: PART-2-1                                                                        
 LARGEST CORRECTION TO DISP.         14.3       AT NODE          5   DOF  3
   INSTANCE: PART-2-1                                                                        
          FORCE     EQUILIBRIUM NOT ACHIEVED WITHIN TOLERANCE.

 AVERAGE MOMENT                      25.1       TIME AVG. MOMENT       25.1    
 LARGEST RESIDUAL MOMENT            2.017E+03   AT NODE         13   DOF  5
   INSTANCE: PART-2-1                                                                        
 LARGEST INCREMENT OF ROTATION      0.987       AT NODE         11   DOF  5
   INSTANCE: PART-1-1                                                                        
 LARGEST CORRECTION TO ROTATION     0.987       AT NODE         11   DOF  5
   INSTANCE: PART-1-1                                                                        
          MOMENT    EQUILIBRIUM NOT ACHIEVED WITHIN TOLERANCE.
 
	SYMMETRIC DIRECT SPARSE SOLVER RUNNING ON
 	1 HOST:        1 MPI RANK  x 2 THREADS
 	NUMBER OF EQUATIONS:     2778
 	NUMBER OF RHS:           1
 	NUMBER OF FLOPS:         3.609e+07

     CHECK POINT   START OF SOLVER    

     CHECK POINT  END OF SOLVER       

       ELAPSED USER TIME (SEC)      =  0.10000    
       ELAPSED SYSTEM TIME (SEC)    =   0.0000    
       ELAPSED TOTAL CPU TIME (SEC) =  0.10000    
       ELAPSED WALLCLOCK TIME (SEC) =          0
 

 ***WARNING: THE SYSTEM MATRIX HAS 53 NEGATIVE EIGENVALUES.
             EXPLANATIONS ARE SUGGESTED AFTER THE FIRST OCCURRENCE OF THIS MESSAGE.

                   50 SEVERE DISCONTINUITIES OCCURRED DURING THIS ITERATION.
                   46 POINTS CHANGED FROM OPEN TO CLOSED
                    4 POINTS CHANGED FROM CLOSED TO OPEN

               CONVERGENCE CHECKS FOR SEVERE DISCONTINUITY ITERATION     3

   MAX. PENETRATION ERROR 1.62810     AT NODE PART-1-1.65 OF CONTACT PAIR 
   (GENERAL_CONTACT_FACES_5,GENERAL_CONTACT_FACES_2)
   MAX. CONTACT FORCE ERROR 78.6151      AT NODE PART-1-1.65 OF CONTACT PAIR 
   (GENERAL_CONTACT_FACES_5,GENERAL_CONTACT_FACES_2)
          PENETRATION ERROR TOO LARGE COMPARED TO DISPLACEMENT INCREMENT.

 AVERAGE FORCE                       33.2       TIME AVG. FORCE        33.2    
 LARGEST RESIDUAL FORCE            -3.843E+03   AT NODE         22   DOF  3
   INSTANCE: PART-1-1                                                                        
 LARGEST INCREMENT OF DISP.         -12.6       AT NODE          5   DOF  1
   INSTANCE: PART-2-1                                                                        
 LARGEST CORRECTION TO DISP.        -8.10       AT NODE          1   DOF  3
   INSTANCE: PART-1-3                                                                        
          FORCE     EQUILIBRIUM NOT ACHIEVED WITHIN TOLERANCE.

 AVERAGE MOMENT                      5.60       TIME AVG. MOMENT       5.60    
 LARGEST RESIDUAL MOMENT             243.       AT NODE         13   DOF  5
   INSTANCE: PART-2-1                                                                        
 LARGEST INCREMENT OF ROTATION       1.28       AT NODE         66   DOF  5
   INSTANCE: PART-1-1                                                                        
 LARGEST CORRECTION TO ROTATION    -0.426       AT NODE         11   DOF  6
   INSTANCE: PART-2-1                                                                        
          MOMENT    EQUILIBRIUM NOT ACHIEVED WITHIN TOLERANCE.
 
	SYMMETRIC DIRECT SPARSE SOLVER RUNNING ON
 	1 HOST:        1 MPI RANK  x 2 THREADS
 	NUMBER OF EQUATIONS:     2778
 	NUMBER OF RHS:           1
 	NUMBER OF FLOPS:         5.183e+07

     CHECK POINT   START OF SOLVER    

     CHECK POINT  END OF SOLVER       

       ELAPSED USER TIME (SEC)      =   0.0000    
       ELAPSED SYSTEM TIME (SEC)    =   0.0000    
       ELAPSED TOTAL CPU TIME (SEC) =   0.0000    
       ELAPSED WALLCLOCK TIME (SEC) =          1
 

 ***WARNING: THE SYSTEM MATRIX HAS 82 NEGATIVE EIGENVALUES.
             EXPLANATIONS ARE SUGGESTED AFTER THE FIRST OCCURRENCE OF THIS MESSAGE.

 ***WARNING: CONVERGENCE JUDGED UNLIKELY.  INCREMENT WILL BE ATTEMPTED AGAIN 
             WITH A TIME INCREMENT OF 1.56250E-02


  INCREMENT     1 STARTS. ATTEMPT NUMBER  4, TIME INCREMENT  1.562E-02
 
	SYMMETRIC DIRECT SPARSE SOLVER RUNNING ON
 	1 HOST:        1 MPI RANK  x 2 THREADS
 	NUMBER OF EQUATIONS:     2778
 	NUMBER OF RHS:           1
 	NUMBER OF FLOPS:         4.374e+07

     CHECK POINT   START OF SOLVER    

     CHECK POINT  END OF SOLVER       

       ELAPSED USER TIME (SEC)      =   0.0000    
       ELAPSED SYSTEM TIME (SEC)    =   0.0000    
       ELAPSED TOTAL CPU TIME (SEC) =   0.0000    
       ELAPSED WALLCLOCK TIME (SEC) =          0

                   22 SEVERE DISCONTINUITIES OCCURRED DURING THIS ITERATION.
                   22 POINTS CHANGED FROM OPEN TO CLOSED

               CONVERGENCE CHECKS FOR SEVERE DISCONTINUITY ITERATION     1

   MAX. PENETRATION ERROR 84.6220E-03  AT NODE PART-1-1.66 OF CONTACT PAIR 
   (GENERAL_CONTACT_EDGES_5,GENERAL_CONTACT_FACES_1)
   MAX. CONTACT FORCE ERROR 7.13756     AT NODE PART-1-1.66 OF CONTACT PAIR 
   (GENERAL_CONTACT_EDGES_5,GENERAL_CONTACT_FACES_1)
          PENETRATION ERROR TOO LARGE COMPARED TO DISPLACEMENT INCREMENT.

 AVERAGE FORCE                      1.618E-02   TIME AVG. FORCE       1.618E-02
 LARGEST RESIDUAL FORCE             0.159       AT NODE         33   DOF  3
   INSTANCE: PART-1-1                                                                        
 LARGEST INCREMENT OF DISP.         -1.25       AT NODE         11   DOF  3
   INSTANCE: PART-1-2                                                                        
 LARGEST CORRECTION TO DISP.        -1.25       AT NODE         11   DOF  3
   INSTANCE: PART-1-2                                                                        
          FORCE     EQUILIBRIUM NOT ACHIEVED WITHIN TOLERANCE.

 AVERAGE MOMENT                     1.420E-03   TIME AVG. MOMENT      1.420E-03
 LARGEST RESIDUAL MOMENT            5.312E-05   AT NODE         13   DOF  5
   INSTANCE: PART-1-1                                                                        
 LARGEST INCREMENT OF ROTATION      2.718E-03   AT NODE        121   DOF  5
   INSTANCE: PART-2-1                                                                        
 LARGEST CORRECTION TO ROTATION     2.718E-03   AT NODE        121   DOF  5
   INSTANCE: PART-2-1                                                                        
          MOMENT    EQUILIBRIUM NOT ACHIEVED WITHIN TOLERANCE.
 
	SYMMETRIC DIRECT SPARSE SOLVER RUNNING ON
 	1 HOST:        1 MPI RANK  x 2 THREADS
 	NUMBER OF EQUATIONS:     2778
 	NUMBER OF RHS:           1
 	NUMBER OF FLOPS:         4.654e+07

     CHECK POINT   START OF SOLVER    

     CHECK POINT  END OF SOLVER       

       ELAPSED USER TIME (SEC)      =  0.10000    
       ELAPSED SYSTEM TIME (SEC)    =   0.0000    
       ELAPSED TOTAL CPU TIME (SEC) =  0.10000    
       ELAPSED WALLCLOCK TIME (SEC) =          0

               CONVERGENCE CHECKS FOR EQUILIBRIUM ITERATION     1

   MAX. PENETRATION ERROR 103.971E-15   AT NODE PART-1-1.110 OF CONTACT PAIR 
   (GENERAL_CONTACT_EDGES_5,GENERAL_CONTACT_FACES_1)
   MAX. CONTACT FORCE ERROR 8.76958E-12 AT NODE PART-1-1.110 OF CONTACT PAIR 
   (GENERAL_CONTACT_EDGES_5,GENERAL_CONTACT_FACES_1)
          THE CONTACT CONSTRAINTS HAVE CONVERGED.

 AVERAGE FORCE                      2.057E-03   TIME AVG. FORCE       2.057E-03
 LARGEST RESIDUAL FORCE             0.171       AT NODE         99   DOF  3
   INSTANCE: PART-1-1                                                                        
 LARGEST INCREMENT OF DISP.         -1.25       AT NODE         11   DOF  3
   INSTANCE: PART-1-2                                                                        
 LARGEST CORRECTION TO DISP.        0.169       AT NODE         34   DOF  3
   INSTANCE: PART-2-1                                                                        
          FORCE     EQUILIBRIUM NOT ACHIEVED WITHIN TOLERANCE.

 AVERAGE MOMENT                     1.482E-03   TIME AVG. MOMENT      1.482E-03
 LARGEST RESIDUAL MOMENT            1.340E-04   AT NODE         65   DOF  5
   INSTANCE: PART-2-1                                                                        
 LARGEST INCREMENT OF ROTATION     -4.441E-03   AT NODE         11   DOF  5
   INSTANCE: PART-1-3                                                                        
 LARGEST CORRECTION TO ROTATION    -1.992E-03   AT NODE         67   DOF  5
   INSTANCE: PART-1-3                                                                        
          MOMENT    EQUILIBRIUM NOT ACHIEVED WITHIN TOLERANCE.
 
	SYMMETRIC DIRECT SPARSE SOLVER RUNNING ON
 	1 HOST:        1 MPI RANK  x 2 THREADS
 	NUMBER OF EQUATIONS:     2778
 	NUMBER OF RHS:           1
 	NUMBER OF FLOPS:         4.654e+07

     CHECK POINT   START OF SOLVER    

     CHECK POINT  END OF SOLVER       

       ELAPSED USER TIME (SEC)      =   0.0000    
       ELAPSED SYSTEM TIME (SEC)    =   0.0000    
       ELAPSED TOTAL CPU TIME (SEC) =   0.0000    
       ELAPSED WALLCLOCK TIME (SEC) =          0

               CONVERGENCE CHECKS FOR EQUILIBRIUM ITERATION     2

   MAX. PENETRATION ERROR 29.5454E-15  AT NODE PART-1-1.33 OF CONTACT PAIR 
   (GENERAL_CONTACT_EDGES_5,GENERAL_CONTACT_FACES_1)
   MAX. CONTACT FORCE ERROR 2.80356E-12 AT NODE PART-1-1.33 OF CONTACT PAIR 
   (GENERAL_CONTACT_EDGES_5,GENERAL_CONTACT_FACES_1)
          THE CONTACT CONSTRAINTS HAVE CONVERGED.

 AVERAGE FORCE                      2.195E-03   TIME AVG. FORCE       2.195E-03
 LARGEST RESIDUAL FORCE            -4.336E-06   AT NODE        110   DOF  1
   INSTANCE: PART-2-1                                                                        
 LARGEST INCREMENT OF DISP.         -1.25       AT NODE         11   DOF  3
   INSTANCE: PART-1-2                                                                        
 LARGEST CORRECTION TO DISP.        6.619E-04   AT NODE        116   DOF  3
   INSTANCE: PART-2-1                                                                        
          THE FORCE     EQUILIBRIUM EQUATIONS HAVE CONVERGED

 AVERAGE MOMENT                     1.507E-03   TIME AVG. MOMENT      1.507E-03
 LARGEST RESIDUAL MOMENT           -5.196E-07   AT NODE        101   DOF  5
   INSTANCE: PART-1-2                                                                        
 LARGEST INCREMENT OF ROTATION     -4.485E-03   AT NODE        121   DOF  5
   INSTANCE: PART-1-3                                                                        
 LARGEST CORRECTION TO ROTATION    -4.407E-05   AT NODE        121   DOF  5
   INSTANCE: PART-1-3                                                                        
          THE MOMENT    EQUILIBRIUM EQUATIONS HAVE CONVERGED

 ITERATION SUMMARY FOR THE INCREMENT:   3 TOTAL ITERATIONS, OF WHICH
   1 ARE SEVERE DISCONTINUITY ITERATIONS AND  2 ARE EQUILIBRIUM ITERATIONS.

 TIME INCREMENT COMPLETED  1.562E-02,  FRACTION OF STEP COMPLETED  1.562E-02
 STEP TIME COMPLETED       1.562E-02,  TOTAL TIME COMPLETED        1.562E-02


  INCREMENT     2 STARTS. ATTEMPT NUMBER  1, TIME INCREMENT  1.562E-02
 
	SYMMETRIC DIRECT SPARSE SOLVER RUNNING ON
 	1 HOST:        1 MPI RANK  x 2 THREADS
 	NUMBER OF EQUATIONS:     2778
 	NUMBER OF RHS:           1
 	NUMBER OF FLOPS:         4.679e+07

     CHECK POINT   START OF SOLVER    

     CHECK POINT  END OF SOLVER       

       ELAPSED USER TIME (SEC)      =  0.10000    
       ELAPSED SYSTEM TIME (SEC)    =   0.0000    
       ELAPSED TOTAL CPU TIME (SEC) =  0.10000    
       ELAPSED WALLCLOCK TIME (SEC) =          1

               CONVERGENCE CHECKS FOR EQUILIBRIUM ITERATION     1

   MAX. PENETRATION ERROR -1.56396E-12 AT NODE PART-1-1.22 OF CONTACT PAIR 
   (GENERAL_CONTACT_EDGES_5,GENERAL_CONTACT_FACES_1)
   MAX. CONTACT FORCE ERROR -131.914E-12   AT NODE PART-1-1.22 OF CONTACT PAIR 
   (GENERAL_CONTACT_EDGES_5,GENERAL_CONTACT_FACES_1)
          THE CONTACT CONSTRAINTS HAVE CONVERGED.

 AVERAGE FORCE                      9.381E-02   TIME AVG. FORCE       4.800E-02
 LARGEST RESIDUAL FORCE              1.89       AT NODE        110   DOF  3
   INSTANCE: PART-1-1                                                                        
 LARGEST INCREMENT OF DISP.         -1.25       AT NODE         11   DOF  3
   INSTANCE: PART-1-2                                                                        
 LARGEST CORRECTION TO DISP.        0.999       AT NODE         77   DOF  3
   INSTANCE: PART-1-1                                                                        
          FORCE     EQUILIBRIUM NOT ACHIEVED WITHIN TOLERANCE.

 AVERAGE MOMENT                     6.961E-03   TIME AVG. MOMENT      4.234E-03
 LARGEST RESIDUAL MOMENT           -1.389E-02   AT NODE        101   DOF  5
   INSTANCE: PART-1-2                                                                        
 LARGEST INCREMENT OF ROTATION      1.821E-02   AT NODE          1   DOF  5
   INSTANCE: PART-1-2                                                                        
 LARGEST CORRECTION TO ROTATION     1.724E-02   AT NODE          1   DOF  5
   INSTANCE: PART-1-2                                                                        
          MOMENT    EQUILIBRIUM NOT ACHIEVED WITHIN TOLERANCE.
 
	SYMMETRIC DIRECT SPARSE SOLVER RUNNING ON
 	1 HOST:        1 MPI RANK  x 2 THREADS
 	NUMBER OF EQUATIONS:     2778
 	NUMBER OF RHS:           1
 	NUMBER OF FLOPS:         4.679e+07

     CHECK POINT   START OF SOLVER    

     CHECK POINT  END OF SOLVER       

       ELAPSED USER TIME (SEC)      =   0.0000    
       ELAPSED SYSTEM TIME (SEC)    =   0.0000    
       ELAPSED TOTAL CPU TIME (SEC) =   0.0000    
       ELAPSED WALLCLOCK TIME (SEC) =          0

               CONVERGENCE CHECKS FOR EQUILIBRIUM ITERATION     2

   MAX. PENETRATION ERROR 37.9000E-15  AT NODE PART-1-1.33 OF CONTACT PAIR 
   (GENERAL_CONTACT_EDGES_5,GENERAL_CONTACT_FACES_1)
   MAX. CONTACT FORCE ERROR 3.59634E-12 AT NODE PART-1-1.33 OF CONTACT PAIR 
   (GENERAL_CONTACT_EDGES_5,GENERAL_CONTACT_FACES_1)
          THE CONTACT CONSTRAINTS HAVE CONVERGED.

 AVERAGE FORCE                      1.580E-02   TIME AVG. FORCE       8.997E-03
 LARGEST RESIDUAL FORCE            -4.527E-04   AT NODE         66   DOF  1
   INSTANCE: PART-2-1                                                                        
 LARGEST INCREMENT OF DISP.         -1.25       AT NODE         11   DOF  3
   INSTANCE: PART-1-2                                                                        
 LARGEST CORRECTION TO DISP.        7.298E-03   AT NODE         60   DOF  1
   INSTANCE: PART-1-2                                                                        
          FORCE     EQUILIBRIUM NOT ACHIEVED WITHIN TOLERANCE.

 AVERAGE MOMENT                     7.502E-03   TIME AVG. MOMENT      4.505E-03
 LARGEST RESIDUAL MOMENT            4.053E-04   AT NODE         13   DOF  5
   INSTANCE: PART-2-1                                                                        
 LARGEST INCREMENT OF ROTATION      1.847E-02   AT NODE        111   DOF  5
   INSTANCE: PART-2-1                                                                        
 LARGEST CORRECTION TO ROTATION    -5.378E-04   AT NODE         55   DOF  5
   INSTANCE: PART-2-1                                                                        
          MOMENT    EQUILIBRIUM NOT ACHIEVED WITHIN TOLERANCE.
 
	SYMMETRIC DIRECT SPARSE SOLVER RUNNING ON
 	1 HOST:        1 MPI RANK  x 2 THREADS
 	NUMBER OF EQUATIONS:     2778
 	NUMBER OF RHS:           1
 	NUMBER OF FLOPS:         4.679e+07

     CHECK POINT   START OF SOLVER    

     CHECK POINT  END OF SOLVER       

       ELAPSED USER TIME (SEC)      =  0.10000    
       ELAPSED SYSTEM TIME (SEC)    =   0.0000    
       ELAPSED TOTAL CPU TIME (SEC) =  0.10000    
       ELAPSED WALLCLOCK TIME (SEC) =          0

               CONVERGENCE CHECKS FOR EQUILIBRIUM ITERATION     3

   MAX. PENETRATION ERROR -8.01702E-15 AT NODE PART-1-1.22 OF CONTACT PAIR 
   (GENERAL_CONTACT_EDGES_5,GENERAL_CONTACT_FACES_1)
   MAX. CONTACT FORCE ERROR 727.713E-15   AT NODE PART-1-1.99 OF CONTACT PAIR 
   (GENERAL_CONTACT_EDGES_5,GENERAL_CONTACT_FACES_1)
          THE CONTACT CONSTRAINTS HAVE CONVERGED.

 AVERAGE FORCE                      1.581E-02   TIME AVG. FORCE       9.004E-03
 LARGEST RESIDUAL FORCE             7.913E-04   AT NODE         22   DOF  3
   INSTANCE: PART-1-1                                                                        
 LARGEST INCREMENT OF DISP.         -1.25       AT NODE         11   DOF  3
   INSTANCE: PART-1-2                                                                        
 LARGEST CORRECTION TO DISP.       -6.946E-03   AT NODE        116   DOF  3
   INSTANCE: PART-2-1                                                                        
          FORCE     EQUILIBRIUM NOT ACHIEVED WITHIN TOLERANCE.

 AVERAGE MOMENT                     8.115E-03   TIME AVG. MOMENT      4.811E-03
 LARGEST RESIDUAL MOMENT           -4.314E-07   AT NODE         11   DOF  5
   INSTANCE: PART-2-1                                                                        
 LARGEST INCREMENT OF ROTATION      1.899E-02   AT NODE        111   DOF  5
   INSTANCE: PART-2-1                                                                        
 LARGEST CORRECTION TO ROTATION     5.223E-04   AT NODE          1   DOF  5
   INSTANCE: PART-2-1                                                                        
 ESTIMATE OF ROTATION CORRECTION   -5.559E-07
 MOMENT    EQUILIB. ACCEPTED BASED ON SMALL RESIDUAL AND ESTIMATED CORRECTION
 
	SYMMETRIC DIRECT SPARSE SOLVER RUNNING ON
 	1 HOST:        1 MPI RANK  x 2 THREADS
 	NUMBER OF EQUATIONS:     2778
 	NUMBER OF RHS:           1
 	NUMBER OF FLOPS:         4.679e+07

     CHECK POINT   START OF SOLVER    

     CHECK POINT  END OF SOLVER       

       ELAPSED USER TIME (SEC)      =  0.10000    
       ELAPSED SYSTEM TIME (SEC)    =   0.0000    
       ELAPSED TOTAL CPU TIME (SEC) =  0.10000    
       ELAPSED WALLCLOCK TIME (SEC) =          0

               CONVERGENCE CHECKS FOR EQUILIBRIUM ITERATION     4

   MAX. PENETRATION ERROR 2.72145E-15 AT NODE PART-2-1.1 OF CONTACT PAIR 
   (GENERAL_CONTACT_EDGES_2,GENERAL_CONTACT_FACES_1)
   MAX. CONTACT FORCE ERROR 114.772E-15   AT NODE PART-2-1.1 OF CONTACT PAIR 
   (GENERAL_CONTACT_EDGES_2,GENERAL_CONTACT_FACES_1)
          THE CONTACT CONSTRAINTS HAVE CONVERGED.

 AVERAGE FORCE                      1.584E-02   TIME AVG. FORCE       9.019E-03
 LARGEST RESIDUAL FORCE            -6.183E-10   AT NODE         66   DOF  1
   INSTANCE: PART-2-1                                                                        
 LARGEST INCREMENT OF DISP.         -1.25       AT NODE         11   DOF  3
   INSTANCE: PART-1-2                                                                        
 LARGEST CORRECTION TO DISP.       -5.291E-06   AT NODE         61   DOF  3
   INSTANCE: PART-2-1                                                                        
          THE FORCE     EQUILIBRIUM EQUATIONS HAVE CONVERGED

 AVERAGE MOMENT                     8.133E-03   TIME AVG. MOMENT      4.820E-03
 LARGEST RESIDUAL MOMENT            2.449E-09   AT NODE         15   DOF  5
   INSTANCE: PART-2-1                                                                        
 LARGEST INCREMENT OF ROTATION      1.899E-02   AT NODE        111   DOF  5
   INSTANCE: PART-2-1                                                                        
 LARGEST CORRECTION TO ROTATION    -3.978E-07   AT NODE         66   DOF  5
   INSTANCE: PART-2-1                                                                        
          THE MOMENT    EQUILIBRIUM EQUATIONS HAVE CONVERGED
          TIME INCREMENT MAY NOW INCREASE TO    2.344E-02

 ITERATION SUMMARY FOR THE INCREMENT:   4 TOTAL ITERATIONS, OF WHICH
   0 ARE SEVERE DISCONTINUITY ITERATIONS AND  4 ARE EQUILIBRIUM ITERATIONS.

 TIME INCREMENT COMPLETED  1.562E-02,  FRACTION OF STEP COMPLETED  3.125E-02
 STEP TIME COMPLETED       3.125E-02,  TOTAL TIME COMPLETED        3.125E-02


  INCREMENT     3 STARTS. ATTEMPT NUMBER  1, TIME INCREMENT  2.344E-02
 
	SYMMETRIC DIRECT SPARSE SOLVER RUNNING ON
 	1 HOST:        1 MPI RANK  x 2 THREADS
 	NUMBER OF EQUATIONS:     2778
 	NUMBER OF RHS:           1
 	NUMBER OF FLOPS:         4.679e+07

     CHECK POINT   START OF SOLVER    

     CHECK POINT  END OF SOLVER       

       ELAPSED USER TIME (SEC)      =  0.10000    
       ELAPSED SYSTEM TIME (SEC)    =   0.0000    
       ELAPSED TOTAL CPU TIME (SEC) =  0.10000    
       ELAPSED WALLCLOCK TIME (SEC) =          0

               CONVERGENCE CHECKS FOR EQUILIBRIUM ITERATION     1

   MAX. PENETRATION ERROR 1.50521E-12 AT NODE PART-1-1.110 OF CONTACT PAIR 
   (GENERAL_CONTACT_EDGES_5,GENERAL_CONTACT_FACES_1)
   MAX. CONTACT FORCE ERROR 126.960E-12   AT NODE PART-1-1.110 OF CONTACT PAIR 
   (GENERAL_CONTACT_EDGES_5,GENERAL_CONTACT_FACES_1)
          THE CONTACT CONSTRAINTS HAVE CONVERGED.

 AVERAGE FORCE                      5.427E-02   TIME AVG. FORCE       2.410E-02
 LARGEST RESIDUAL FORCE             0.589       AT NODE         22   DOF  3
   INSTANCE: PART-1-1                                                                        
 LARGEST INCREMENT OF DISP.         -1.88       AT NODE         11   DOF  3
   INSTANCE: PART-1-2                                                                        
 LARGEST CORRECTION TO DISP.       -0.204       AT NODE        116   DOF  1
   INSTANCE: PART-2-1                                                                        
          FORCE     EQUILIBRIUM NOT ACHIEVED WITHIN TOLERANCE.

 AVERAGE MOMENT                     1.090E-02   TIME AVG. MOMENT      6.846E-03
 LARGEST RESIDUAL MOMENT           -6.714E-02   AT NODE        101   DOF  5
   INSTANCE: PART-2-1                                                                        
 LARGEST INCREMENT OF ROTATION      2.522E-02   AT NODE        121   DOF  5
   INSTANCE: PART-2-1                                                                        
 LARGEST CORRECTION TO ROTATION    -1.401E-02   AT NODE        111   DOF  5
   INSTANCE: PART-2-1                                                                        
          MOMENT    EQUILIBRIUM NOT ACHIEVED WITHIN TOLERANCE.
 
	SYMMETRIC DIRECT SPARSE SOLVER RUNNING ON
 	1 HOST:        1 MPI RANK  x 2 THREADS
 	NUMBER OF EQUATIONS:     2778
 	NUMBER OF RHS:           1
 	NUMBER OF FLOPS:         4.679e+07

     CHECK POINT   START OF SOLVER    

     CHECK POINT  END OF SOLVER       

       ELAPSED USER TIME (SEC)      =  0.10000    
       ELAPSED SYSTEM TIME (SEC)    =   0.0000    
       ELAPSED TOTAL CPU TIME (SEC) =  0.10000    
       ELAPSED WALLCLOCK TIME (SEC) =          0

               CONVERGENCE CHECKS FOR EQUILIBRIUM ITERATION     2

   MAX. PENETRATION ERROR 247.599E-15   AT NODE PART-1-1.88 OF CONTACT PAIR 
   (GENERAL_CONTACT_EDGES_5,GENERAL_CONTACT_FACES_1)
   MAX. CONTACT FORCE ERROR 20.8843E-12  AT NODE PART-1-1.88 OF CONTACT PAIR 
   (GENERAL_CONTACT_EDGES_5,GENERAL_CONTACT_FACES_1)
          THE CONTACT CONSTRAINTS HAVE CONVERGED.

 AVERAGE FORCE                      3.632E-02   TIME AVG. FORCE       1.812E-02
 LARGEST RESIDUAL FORCE            -5.704E-03   AT NODE         66   DOF  1
   INSTANCE: PART-2-1                                                                        
 LARGEST INCREMENT OF DISP.         -1.88       AT NODE         11   DOF  3
   INSTANCE: PART-1-2                                                                        
 LARGEST CORRECTION TO DISP.        2.176E-02   AT NODE        116   DOF  3
   INSTANCE: PART-1-2                                                                        
          FORCE     EQUILIBRIUM NOT ACHIEVED WITHIN TOLERANCE.

 AVERAGE MOMENT                     1.046E-02   TIME AVG. MOMENT      6.701E-03
 LARGEST RESIDUAL MOMENT            8.276E-04   AT NODE         13   DOF  5
   INSTANCE: PART-1-3                                                                        
 LARGEST INCREMENT OF ROTATION      2.628E-02   AT NODE        121   DOF  5
   INSTANCE: PART-2-1                                                                        
 LARGEST CORRECTION TO ROTATION     1.437E-03   AT NODE        121   DOF  5
   INSTANCE: PART-1-2                                                                        
          MOMENT    EQUILIBRIUM NOT ACHIEVED WITHIN TOLERANCE.
 
	SYMMETRIC DIRECT SPARSE SOLVER RUNNING ON
 	1 HOST:        1 MPI RANK  x 2 THREADS
 	NUMBER OF EQUATIONS:     2778
 	NUMBER OF RHS:           1
 	NUMBER OF FLOPS:         4.679e+07

     CHECK POINT   START OF SOLVER    

     CHECK POINT  END OF SOLVER       

       ELAPSED USER TIME (SEC)      =  0.10000    
       ELAPSED SYSTEM TIME (SEC)    =   0.0000    
       ELAPSED TOTAL CPU TIME (SEC) =  0.10000    
       ELAPSED WALLCLOCK TIME (SEC) =          0
 

 ***WARNING: THE SYSTEM MATRIX HAS 1 NEGATIVE EIGENVALUES.
             EXPLANATIONS ARE SUGGESTED AFTER THE FIRST OCCURRENCE OF THIS MESSAGE.

               CONVERGENCE CHECKS FOR EQUILIBRIUM ITERATION     3

   MAX. PENETRATION ERROR 19.1252E-15  AT NODE PART-2-1.34 OF CONTACT PAIR 
   (GENERAL_CONTACT_EDGES_2,GENERAL_CONTACT_FACES_1)
   MAX. CONTACT FORCE ERROR 1.61315E-12 AT NODE PART-2-1.34 OF CONTACT PAIR 
   (GENERAL_CONTACT_EDGES_2,GENERAL_CONTACT_FACES_1)
          THE CONTACT CONSTRAINTS HAVE CONVERGED.

 AVERAGE FORCE                      3.630E-02   TIME AVG. FORCE       1.811E-02
 LARGEST RESIDUAL FORCE             7.027E-03   AT NODE        100   DOF  1
   INSTANCE: PART-1-1                                                                        
 LARGEST INCREMENT OF DISP.         -1.88       AT NODE         11   DOF  3
   INSTANCE: PART-1-2                                                                        
 LARGEST CORRECTION TO DISP.        2.323E-02   AT NODE          6   DOF  3
   INSTANCE: PART-1-3                                                                        
          FORCE     EQUILIBRIUM NOT ACHIEVED WITHIN TOLERANCE.

 AVERAGE MOMENT                     1.241E-02   TIME AVG. MOMENT      7.350E-03
 LARGEST RESIDUAL MOMENT            4.284E-06   AT NODE         65   DOF  5
   INSTANCE: PART-1-2                                                                        
 LARGEST INCREMENT OF ROTATION     -2.771E-02   AT NODE         11   DOF  5
   INSTANCE: PART-1-3                                                                        
 LARGEST CORRECTION TO ROTATION    -1.600E-03   AT NODE        111   DOF  5
   INSTANCE: PART-1-2                                                                        
 ESTIMATE OF ROTATION CORRECTION   -8.279E-06
 MOMENT    EQUILIB. ACCEPTED BASED ON SMALL RESIDUAL AND ESTIMATED CORRECTION
 
	SYMMETRIC DIRECT SPARSE SOLVER RUNNING ON
 	1 HOST:        1 MPI RANK  x 2 THREADS
 	NUMBER OF EQUATIONS:     2778
 	NUMBER OF RHS:           1
 	NUMBER OF FLOPS:         4.679e+07

     CHECK POINT   START OF SOLVER    

     CHECK POINT  END OF SOLVER       

       ELAPSED USER TIME (SEC)      =  0.10000    
       ELAPSED SYSTEM TIME (SEC)    =   0.0000    
       ELAPSED TOTAL CPU TIME (SEC) =  0.10000    
       ELAPSED WALLCLOCK TIME (SEC) =          0
 

 ***WARNING: THE SYSTEM MATRIX HAS 1 NEGATIVE EIGENVALUES.
             EXPLANATIONS ARE SUGGESTED AFTER THE FIRST OCCURRENCE OF THIS MESSAGE.

               CONVERGENCE CHECKS FOR EQUILIBRIUM ITERATION     4

   MAX. PENETRATION ERROR 2.48250E-15 AT NODE PART-2-1.12 OF CONTACT PAIR 
   (GENERAL_CONTACT_EDGES_2,GENERAL_CONTACT_FACES_1)
   MAX. CONTACT FORCE ERROR 209.391E-15   AT NODE PART-2-1.12 OF CONTACT PAIR 
   (GENERAL_CONTACT_EDGES_2,GENERAL_CONTACT_FACES_1)
          THE CONTACT CONSTRAINTS HAVE CONVERGED.

 AVERAGE FORCE                      3.665E-02   TIME AVG. FORCE       1.823E-02
 LARGEST RESIDUAL FORCE            -1.399E-06   AT NODE        110   DOF  1
   INSTANCE: PART-2-1                                                                        
 LARGEST INCREMENT OF DISP.         -1.88       AT NODE         11   DOF  3
   INSTANCE: PART-1-2                                                                        
 LARGEST CORRECTION TO DISP.       -4.018E-04   AT NODE          5   DOF  1
   INSTANCE: PART-2-1                                                                        
          THE FORCE     EQUILIBRIUM EQUATIONS HAVE CONVERGED

 AVERAGE MOMENT                     1.252E-02   TIME AVG. MOMENT      7.387E-03
 LARGEST RESIDUAL MOMENT            2.023E-07   AT NODE         13   DOF  5
   INSTANCE: PART-1-3                                                                        
 LARGEST INCREMENT OF ROTATION     -2.773E-02   AT NODE         11   DOF  5
   INSTANCE: PART-1-3                                                                        
 LARGEST CORRECTION TO ROTATION     2.499E-05   AT NODE        111   DOF  5
   INSTANCE: PART-1-3                                                                        
          THE MOMENT    EQUILIBRIUM EQUATIONS HAVE CONVERGED
          TIME INCREMENT MAY NOW INCREASE TO    3.516E-02

 ITERATION SUMMARY FOR THE INCREMENT:   4 TOTAL ITERATIONS, OF WHICH
   0 ARE SEVERE DISCONTINUITY ITERATIONS AND  4 ARE EQUILIBRIUM ITERATIONS.

 TIME INCREMENT COMPLETED  2.344E-02,  FRACTION OF STEP COMPLETED  5.469E-02
 STEP TIME COMPLETED       5.469E-02,  TOTAL TIME COMPLETED        5.469E-02


  INCREMENT     4 STARTS. ATTEMPT NUMBER  1, TIME INCREMENT  3.516E-02
 
	SYMMETRIC DIRECT SPARSE SOLVER RUNNING ON
 	1 HOST:        1 MPI RANK  x 2 THREADS
 	NUMBER OF EQUATIONS:     2778
 	NUMBER OF RHS:           1
 	NUMBER OF FLOPS:         4.679e+07

     CHECK POINT   START OF SOLVER    

     CHECK POINT  END OF SOLVER       

       ELAPSED USER TIME (SEC)      =   0.0000    
       ELAPSED SYSTEM TIME (SEC)    =   0.0000    
       ELAPSED TOTAL CPU TIME (SEC) =   0.0000    
       ELAPSED WALLCLOCK TIME (SEC) =          0

               CONVERGENCE CHECKS FOR EQUILIBRIUM ITERATION     1

   MAX. PENETRATION ERROR 1.59570E-12 AT NODE PART-2-1.100 OF CONTACT PAIR 
   (GENERAL_CONTACT_EDGES_2,GENERAL_CONTACT_FACES_1)
   MAX. CONTACT FORCE ERROR 134.592E-12   AT NODE PART-2-1.100 OF CONTACT PAIR 
   (GENERAL_CONTACT_EDGES_2,GENERAL_CONTACT_FACES_1)
          THE CONTACT CONSTRAINTS HAVE CONVERGED.

 AVERAGE FORCE                      0.104       TIME AVG. FORCE       3.966E-02
 LARGEST RESIDUAL FORCE            -0.640       AT NODE        110   DOF  1
   INSTANCE: PART-2-1                                                                        
 LARGEST INCREMENT OF DISP.         -2.81       AT NODE         11   DOF  3
   INSTANCE: PART-1-2                                                                        
 LARGEST CORRECTION TO DISP.        0.230       AT NODE          6   DOF  1
   INSTANCE: PART-1-2                                                                        
          FORCE     EQUILIBRIUM NOT ACHIEVED WITHIN TOLERANCE.

 AVERAGE MOMENT                     2.072E-02   TIME AVG. MOMENT      1.072E-02
 LARGEST RESIDUAL MOMENT           -0.160       AT NODE         21   DOF  5
   INSTANCE: PART-1-2                                                                        
 LARGEST INCREMENT OF ROTATION     -3.205E-02   AT NODE         67   DOF  5
   INSTANCE: PART-1-3                                                                        
 LARGEST CORRECTION TO ROTATION    -1.481E-02   AT NODE         11   DOF  5
   INSTANCE: PART-1-2                                                                        
          MOMENT    EQUILIBRIUM NOT ACHIEVED WITHIN TOLERANCE.
 
	SYMMETRIC DIRECT SPARSE SOLVER RUNNING ON
 	1 HOST:        1 MPI RANK  x 2 THREADS
 	NUMBER OF EQUATIONS:     2778
 	NUMBER OF RHS:           1
 	NUMBER OF FLOPS:         4.679e+07

     CHECK POINT   START OF SOLVER    

     CHECK POINT  END OF SOLVER       

       ELAPSED USER TIME (SEC)      =  0.10000    
       ELAPSED SYSTEM TIME (SEC)    =   0.0000    
       ELAPSED TOTAL CPU TIME (SEC) =  0.10000    
       ELAPSED WALLCLOCK TIME (SEC) =          0

               CONVERGENCE CHECKS FOR EQUILIBRIUM ITERATION     2

   MAX. PENETRATION ERROR 245.169E-15   AT NODE PART-2-1.23 OF CONTACT PAIR 
   (GENERAL_CONTACT_EDGES_2,GENERAL_CONTACT_FACES_1)
   MAX. CONTACT FORCE ERROR 23.2644E-12  AT NODE PART-2-1.23 OF CONTACT PAIR 
   (GENERAL_CONTACT_EDGES_2,GENERAL_CONTACT_FACES_1)
          THE CONTACT CONSTRAINTS HAVE CONVERGED.

 AVERAGE FORCE                      9.118E-02   TIME AVG. FORCE       3.647E-02
 LARGEST RESIDUAL FORCE             1.705E-02   AT NODE         22   DOF  3
   INSTANCE: PART-1-1                                                                        
 LARGEST INCREMENT OF DISP.         -2.81       AT NODE         11   DOF  3
   INSTANCE: PART-1-2                                                                        
 LARGEST CORRECTION TO DISP.       -3.649E-02   AT NODE          6   DOF  3
   INSTANCE: PART-1-1                                                                        
          FORCE     EQUILIBRIUM NOT ACHIEVED WITHIN TOLERANCE.

 AVERAGE MOMENT                     1.293E-02   TIME AVG. MOMENT      8.772E-03
 LARGEST RESIDUAL MOMENT           -1.581E-03   AT NODE        109   DOF  5
   INSTANCE: PART-2-1                                                                        
 LARGEST INCREMENT OF ROTATION     -3.402E-02   AT NODE         67   DOF  5
   INSTANCE: PART-1-3                                                                        
 LARGEST CORRECTION TO ROTATION    -2.342E-03   AT NODE         11   DOF  5
   INSTANCE: PART-1-1                                                                        
          MOMENT    EQUILIBRIUM NOT ACHIEVED WITHIN TOLERANCE.
 
	SYMMETRIC DIRECT SPARSE SOLVER RUNNING ON
 	1 HOST:        1 MPI RANK  x 2 THREADS
 	NUMBER OF EQUATIONS:     2778
 	NUMBER OF RHS:           1
 	NUMBER OF FLOPS:         4.679e+07

     CHECK POINT   START OF SOLVER    

     CHECK POINT  END OF SOLVER       

       ELAPSED USER TIME (SEC)      =   0.0000    
       ELAPSED SYSTEM TIME (SEC)    =   0.0000    
       ELAPSED TOTAL CPU TIME (SEC) =   0.0000    
       ELAPSED WALLCLOCK TIME (SEC) =          0
 

 ***WARNING: THE SYSTEM MATRIX HAS 1 NEGATIVE EIGENVALUES.
             EXPLANATIONS ARE SUGGESTED AFTER THE FIRST OCCURRENCE OF THIS MESSAGE.

               CONVERGENCE CHECKS FOR EQUILIBRIUM ITERATION     3

   MAX. PENETRATION ERROR 58.5800E-15  AT NODE PART-1-1.33 OF CONTACT PAIR 
   (GENERAL_CONTACT_EDGES_5,GENERAL_CONTACT_FACES_1)
   MAX. CONTACT FORCE ERROR 5.55873E-12 AT NODE PART-1-1.33 OF CONTACT PAIR 
   (GENERAL_CONTACT_EDGES_5,GENERAL_CONTACT_FACES_1)
          THE CONTACT CONSTRAINTS HAVE CONVERGED.

 AVERAGE FORCE                      8.999E-02   TIME AVG. FORCE       3.617E-02
 LARGEST RESIDUAL FORCE             5.260E-02   AT NODE         12   DOF  1
   INSTANCE: PART-1-1                                                                        
 LARGEST INCREMENT OF DISP.         -2.81       AT NODE         11   DOF  3
   INSTANCE: PART-1-2                                                                        
 LARGEST CORRECTION TO DISP.       -6.518E-02   AT NODE        116   DOF  3
   INSTANCE: PART-2-1                                                                        
          FORCE     EQUILIBRIUM NOT ACHIEVED WITHIN TOLERANCE.

 AVERAGE MOMENT                     1.727E-02   TIME AVG. MOMENT      9.859E-03
 LARGEST RESIDUAL MOMENT           -8.966E-05   AT NODE        101   DOF  5
   INSTANCE: PART-2-1                                                                        
 LARGEST INCREMENT OF ROTATION      3.792E-02   AT NODE        111   DOF  5
   INSTANCE: PART-2-1                                                                        
 LARGEST CORRECTION TO ROTATION     4.290E-03   AT NODE        111   DOF  5
   INSTANCE: PART-2-1                                                                        
          MOMENT    EQUILIBRIUM NOT ACHIEVED WITHIN TOLERANCE.
 
	SYMMETRIC DIRECT SPARSE SOLVER RUNNING ON
 	1 HOST:        1 MPI RANK  x 2 THREADS
 	NUMBER OF EQUATIONS:     2778
 	NUMBER OF RHS:           1
 	NUMBER OF FLOPS:         4.679e+07

     CHECK POINT   START OF SOLVER    

     CHECK POINT  END OF SOLVER       

       ELAPSED USER TIME (SEC)      =   0.0000    
       ELAPSED SYSTEM TIME (SEC)    =   0.0000    
       ELAPSED TOTAL CPU TIME (SEC) =   0.0000    
       ELAPSED WALLCLOCK TIME (SEC) =          0
 

 ***WARNING: THE SYSTEM MATRIX HAS 1 NEGATIVE EIGENVALUES.
             EXPLANATIONS ARE SUGGESTED AFTER THE FIRST OCCURRENCE OF THIS MESSAGE.

               CONVERGENCE CHECKS FOR EQUILIBRIUM ITERATION     4

   MAX. PENETRATION ERROR 28.2379E-15  AT NODE PART-1-1.33 OF CONTACT PAIR 
   (GENERAL_CONTACT_EDGES_5,GENERAL_CONTACT_FACES_1)
   MAX. CONTACT FORCE ERROR 2.67953E-12 AT NODE PART-1-1.33 OF CONTACT PAIR 
   (GENERAL_CONTACT_EDGES_5,GENERAL_CONTACT_FACES_1)
          THE CONTACT CONSTRAINTS HAVE CONVERGED.

 AVERAGE FORCE                      9.330E-02   TIME AVG. FORCE       3.700E-02
 LARGEST RESIDUAL FORCE             1.126E-04   AT NODE        110   DOF  3
   INSTANCE: PART-1-1                                                                        
 LARGEST INCREMENT OF DISP.         -2.81       AT NODE         11   DOF  3
   INSTANCE: PART-1-2                                                                        
 LARGEST CORRECTION TO DISP.       -3.111E-03   AT NODE        116   DOF  3
   INSTANCE: PART-1-1                                                                        
          THE FORCE     EQUILIBRIUM EQUATIONS HAVE CONVERGED

 AVERAGE MOMENT                     1.757E-02   TIME AVG. MOMENT      9.933E-03
 LARGEST RESIDUAL MOMENT            1.076E-05   AT NODE         13   DOF  5
   INSTANCE: PART-1-1                                                                        
 LARGEST INCREMENT OF ROTATION      3.811E-02   AT NODE        111   DOF  5
   INSTANCE: PART-2-1                                                                        
 LARGEST CORRECTION TO ROTATION    -2.009E-04   AT NODE        121   DOF  5
   INSTANCE: PART-1-1                                                                        
          THE MOMENT    EQUILIBRIUM EQUATIONS HAVE CONVERGED
          TIME INCREMENT MAY NOW INCREASE TO    5.273E-02

 ITERATION SUMMARY FOR THE INCREMENT:   4 TOTAL ITERATIONS, OF WHICH
   0 ARE SEVERE DISCONTINUITY ITERATIONS AND  4 ARE EQUILIBRIUM ITERATIONS.

 TIME INCREMENT COMPLETED  3.516E-02,  FRACTION OF STEP COMPLETED  8.984E-02
 STEP TIME COMPLETED       8.984E-02,  TOTAL TIME COMPLETED        8.984E-02


  INCREMENT     5 STARTS. ATTEMPT NUMBER  1, TIME INCREMENT  5.273E-02
 
	SYMMETRIC DIRECT SPARSE SOLVER RUNNING ON
 	1 HOST:        1 MPI RANK  x 2 THREADS
 	NUMBER OF EQUATIONS:     2778
 	NUMBER OF RHS:           1
 	NUMBER OF FLOPS:         4.679e+07

     CHECK POINT   START OF SOLVER    

     CHECK POINT  END OF SOLVER       

       ELAPSED USER TIME (SEC)      =  0.10000    
       ELAPSED SYSTEM TIME (SEC)    =   0.0000    
       ELAPSED TOTAL CPU TIME (SEC) =  0.10000    
       ELAPSED WALLCLOCK TIME (SEC) =          0

               CONVERGENCE CHECKS FOR EQUILIBRIUM ITERATION     1

   MAX. PENETRATION ERROR 2.25113E-12 AT NODE PART-2-1.100 OF CONTACT PAIR 
   (GENERAL_CONTACT_EDGES_2,GENERAL_CONTACT_FACES_1)
   MAX. CONTACT FORCE ERROR 189.876E-12   AT NODE PART-2-1.100 OF CONTACT PAIR 
   (GENERAL_CONTACT_EDGES_2,GENERAL_CONTACT_FACES_1)
          THE CONTACT CONSTRAINTS HAVE CONVERGED.

 AVERAGE FORCE                      0.130       TIME AVG. FORCE       5.565E-02
 LARGEST RESIDUAL FORCE            -0.470       AT NODE        110   DOF  1
   INSTANCE: PART-2-1                                                                        
 LARGEST INCREMENT OF DISP.         -4.22       AT NODE         11   DOF  3
   INSTANCE: PART-1-2                                                                        
 LARGEST CORRECTION TO DISP.       -0.359       AT NODE        116   DOF  1
   INSTANCE: PART-2-1                                                                        
          FORCE     EQUILIBRIUM NOT ACHIEVED WITHIN TOLERANCE.

 AVERAGE MOMENT                     3.395E-02   TIME AVG. MOMENT      1.474E-02
 LARGEST RESIDUAL MOMENT            0.297       AT NODE         21   DOF  5
   INSTANCE: PART-1-1                                                                        
 LARGEST INCREMENT OF ROTATION      4.858E-02   AT NODE          1   DOF  5
   INSTANCE: PART-2-1                                                                        
 LARGEST CORRECTION TO ROTATION     1.365E-02   AT NODE         11   DOF  5
   INSTANCE: PART-1-1                                                                        
          MOMENT    EQUILIBRIUM NOT ACHIEVED WITHIN TOLERANCE.
 
	SYMMETRIC DIRECT SPARSE SOLVER RUNNING ON
 	1 HOST:        1 MPI RANK  x 2 THREADS
 	NUMBER OF EQUATIONS:     2778
 	NUMBER OF RHS:           1
 	NUMBER OF FLOPS:         4.679e+07

     CHECK POINT   START OF SOLVER    

     CHECK POINT  END OF SOLVER       

       ELAPSED USER TIME (SEC)      =   0.0000    
       ELAPSED SYSTEM TIME (SEC)    =   0.0000    
       ELAPSED TOTAL CPU TIME (SEC) =   0.0000    
       ELAPSED WALLCLOCK TIME (SEC) =          0
 

 ***WARNING: THE SYSTEM MATRIX HAS 1 NEGATIVE EIGENVALUES.
             EXPLANATIONS ARE SUGGESTED AFTER THE FIRST OCCURRENCE OF THIS MESSAGE.

               CONVERGENCE CHECKS FOR EQUILIBRIUM ITERATION     2

   MAX. PENETRATION ERROR 587.462E-15   AT NODE PART-1-1.44 OF CONTACT PAIR 
   (GENERAL_CONTACT_EDGES_5,GENERAL_CONTACT_FACES_1)
   MAX. CONTACT FORCE ERROR 49.5512E-12  AT NODE PART-1-1.44 OF CONTACT PAIR 
   (GENERAL_CONTACT_EDGES_5,GENERAL_CONTACT_FACES_1)
          THE CONTACT CONSTRAINTS HAVE CONVERGED.

 AVERAGE FORCE                      0.135       TIME AVG. FORCE       5.661E-02
 LARGEST RESIDUAL FORCE             0.146       AT NODE         56   DOF  1
   INSTANCE: PART-1-1                                                                        
 LARGEST INCREMENT OF DISP.         -4.22       AT NODE         11   DOF  3
   INSTANCE: PART-1-2                                                                        
 LARGEST CORRECTION TO DISP.        0.114       AT NODE        116   DOF  1
   INSTANCE: PART-1-1                                                                        
          FORCE     EQUILIBRIUM NOT ACHIEVED WITHIN TOLERANCE.

 AVERAGE MOMENT                     2.123E-02   TIME AVG. MOMENT      1.219E-02
 LARGEST RESIDUAL MOMENT            2.340E-03   AT NODE         13   DOF  5
   INSTANCE: PART-1-3                                                                        
 LARGEST INCREMENT OF ROTATION      4.632E-02   AT NODE         11   DOF  5
   INSTANCE: PART-1-2                                                                        
 LARGEST CORRECTION TO ROTATION    -6.651E-03   AT NODE         56   DOF  5
   INSTANCE: PART-1-2                                                                        
          MOMENT    EQUILIBRIUM NOT ACHIEVED WITHIN TOLERANCE.
 
	SYMMETRIC DIRECT SPARSE SOLVER RUNNING ON
 	1 HOST:        1 MPI RANK  x 2 THREADS
 	NUMBER OF EQUATIONS:     2778
 	NUMBER OF RHS:           1
 	NUMBER OF FLOPS:         4.679e+07

     CHECK POINT   START OF SOLVER    

     CHECK POINT  END OF SOLVER       

       ELAPSED USER TIME (SEC)      =  0.10000    
       ELAPSED SYSTEM TIME (SEC)    =   0.0000    
       ELAPSED TOTAL CPU TIME (SEC) =  0.10000    
       ELAPSED WALLCLOCK TIME (SEC) =          0
 

 ***WARNING: THE SYSTEM MATRIX HAS 1 NEGATIVE EIGENVALUES.
             EXPLANATIONS ARE SUGGESTED AFTER THE FIRST OCCURRENCE OF THIS MESSAGE.

               CONVERGENCE CHECKS FOR EQUILIBRIUM ITERATION     3

   MAX. PENETRATION ERROR 144.863E-15   AT NODE PART-1-1.44 OF CONTACT PAIR 
   (GENERAL_CONTACT_EDGES_5,GENERAL_CONTACT_FACES_1)
   MAX. CONTACT FORCE ERROR 12.2189E-12  AT NODE PART-1-1.44 OF CONTACT PAIR 
   (GENERAL_CONTACT_EDGES_5,GENERAL_CONTACT_FACES_1)
          THE CONTACT CONSTRAINTS HAVE CONVERGED.

 AVERAGE FORCE                      0.131       TIME AVG. FORCE       5.577E-02
 LARGEST RESIDUAL FORCE             0.230       AT NODE         12   DOF  1
   INSTANCE: PART-1-1                                                                        
 LARGEST INCREMENT OF DISP.         -4.22       AT NODE         11   DOF  3
   INSTANCE: PART-1-2                                                                        
 LARGEST CORRECTION TO DISP.        0.296       AT NODE        118   DOF  1
   INSTANCE: PART-1-1                                                                        
          FORCE     EQUILIBRIUM NOT ACHIEVED WITHIN TOLERANCE.

 AVERAGE MOMENT                     2.139E-02   TIME AVG. MOMENT      1.222E-02
 LARGEST RESIDUAL MOMENT            4.751E-04   AT NODE         14   DOF  5
   INSTANCE: PART-1-1                                                                        
 LARGEST INCREMENT OF ROTATION     -5.112E-02   AT NODE         11   DOF  5
   INSTANCE: PART-1-3                                                                        
 LARGEST CORRECTION TO ROTATION    -8.281E-03   AT NODE        111   DOF  5
   INSTANCE: PART-1-1                                                                        
          MOMENT    EQUILIBRIUM NOT ACHIEVED WITHIN TOLERANCE.
 
	SYMMETRIC DIRECT SPARSE SOLVER RUNNING ON
 	1 HOST:        1 MPI RANK  x 2 THREADS
 	NUMBER OF EQUATIONS:     2778
 	NUMBER OF RHS:           1
 	NUMBER OF FLOPS:         4.679e+07

     CHECK POINT   START OF SOLVER    

     CHECK POINT  END OF SOLVER       

       ELAPSED USER TIME (SEC)      =  0.10000    
       ELAPSED SYSTEM TIME (SEC)    =   0.0000    
       ELAPSED TOTAL CPU TIME (SEC) =  0.10000    
       ELAPSED WALLCLOCK TIME (SEC) =          0
 

 ***WARNING: THE SYSTEM MATRIX HAS 1 NEGATIVE EIGENVALUES.
             EXPLANATIONS ARE SUGGESTED AFTER THE FIRST OCCURRENCE OF THIS MESSAGE.

               CONVERGENCE CHECKS FOR EQUILIBRIUM ITERATION     4

   MAX. PENETRATION ERROR 152.316E-15   AT NODE PART-2-1.78 OF CONTACT PAIR 
   (GENERAL_CONTACT_EDGES_2,GENERAL_CONTACT_FACES_1)
   MAX. CONTACT FORCE ERROR 12.8476E-12  AT NODE PART-2-1.78 OF CONTACT PAIR 
   (GENERAL_CONTACT_EDGES_2,GENERAL_CONTACT_FACES_1)
          THE CONTACT CONSTRAINTS HAVE CONVERGED.

 AVERAGE FORCE                      0.139       TIME AVG. FORCE       5.741E-02
 LARGEST RESIDUAL FORCE            -6.575E-02   AT NODE        110   DOF  1
   INSTANCE: PART-2-1                                                                        
 LARGEST INCREMENT OF DISP.         -4.22       AT NODE         11   DOF  3
   INSTANCE: PART-1-2                                                                        
 LARGEST CORRECTION TO DISP.       -0.122       AT NODE        115   DOF  1
   INSTANCE: PART-2-1                                                                        
          FORCE     EQUILIBRIUM NOT ACHIEVED WITHIN TOLERANCE.

 AVERAGE MOMENT                     2.527E-02   TIME AVG. MOMENT      1.300E-02
 LARGEST RESIDUAL MOMENT           -4.367E-04   AT NODE        109   DOF  5
   INSTANCE: PART-1-3                                                                        
 LARGEST INCREMENT OF ROTATION     -5.313E-02   AT NODE         11   DOF  5
   INSTANCE: PART-1-3                                                                        
 LARGEST CORRECTION TO ROTATION     4.588E-03   AT NODE         11   DOF  5
   INSTANCE: PART-1-2                                                                        
          MOMENT    EQUILIBRIUM NOT ACHIEVED WITHIN TOLERANCE.
 
	SYMMETRIC DIRECT SPARSE SOLVER RUNNING ON
 	1 HOST:        1 MPI RANK  x 2 THREADS
 	NUMBER OF EQUATIONS:     2778
 	NUMBER OF RHS:           1
 	NUMBER OF FLOPS:         4.679e+07

     CHECK POINT   START OF SOLVER    

     CHECK POINT  END OF SOLVER       

       ELAPSED USER TIME (SEC)      =  0.10000    
       ELAPSED SYSTEM TIME (SEC)    =   0.0000    
       ELAPSED TOTAL CPU TIME (SEC) =  0.10000    
       ELAPSED WALLCLOCK TIME (SEC) =          0
 

 ***WARNING: THE SYSTEM MATRIX HAS 1 NEGATIVE EIGENVALUES.
             EXPLANATIONS ARE SUGGESTED AFTER THE FIRST OCCURRENCE OF THIS MESSAGE.

               CONVERGENCE CHECKS FOR EQUILIBRIUM ITERATION     5

   MAX. PENETRATION ERROR 58.8554E-15  AT NODE PART-2-1.78 OF CONTACT PAIR 
   (GENERAL_CONTACT_EDGES_2,GENERAL_CONTACT_FACES_1)
   MAX. CONTACT FORCE ERROR 4.96434E-12 AT NODE PART-2-1.78 OF CONTACT PAIR 
   (GENERAL_CONTACT_EDGES_2,GENERAL_CONTACT_FACES_1)
          THE CONTACT CONSTRAINTS HAVE CONVERGED.

 AVERAGE FORCE                      0.142       TIME AVG. FORCE       5.810E-02
 LARGEST RESIDUAL FORCE            -8.192E-03   AT NODE        110   DOF  1
   INSTANCE: PART-2-1                                                                        
 LARGEST INCREMENT OF DISP.         -4.22       AT NODE         11   DOF  3
   INSTANCE: PART-1-2                                                                        
 LARGEST CORRECTION TO DISP.       -4.718E-02   AT NODE        114   DOF  1
   INSTANCE: PART-2-1                                                                        
          FORCE     EQUILIBRIUM NOT ACHIEVED WITHIN TOLERANCE.

 AVERAGE MOMENT                     2.673E-02   TIME AVG. MOMENT      1.329E-02
 LARGEST RESIDUAL MOMENT            1.051E-04   AT NODE        109   DOF  5
   INSTANCE: PART-1-2                                                                        
 LARGEST INCREMENT OF ROTATION     -5.389E-02   AT NODE         11   DOF  5
   INSTANCE: PART-1-3                                                                        
 LARGEST CORRECTION TO ROTATION     1.582E-03   AT NODE        111   DOF  5
   INSTANCE: PART-1-3                                                                        
          MOMENT    EQUILIBRIUM NOT ACHIEVED WITHIN TOLERANCE.
 
	SYMMETRIC DIRECT SPARSE SOLVER RUNNING ON
 	1 HOST:        1 MPI RANK  x 2 THREADS
 	NUMBER OF EQUATIONS:     2778
 	NUMBER OF RHS:           1
 	NUMBER OF FLOPS:         4.679e+07

     CHECK POINT   START OF SOLVER    

     CHECK POINT  END OF SOLVER       

       ELAPSED USER TIME (SEC)      =  0.10000    
       ELAPSED SYSTEM TIME (SEC)    =   0.0000    
       ELAPSED TOTAL CPU TIME (SEC) =  0.10000    
       ELAPSED WALLCLOCK TIME (SEC) =          0
 

 ***WARNING: THE SYSTEM MATRIX HAS 1 NEGATIVE EIGENVALUES.
             EXPLANATIONS ARE SUGGESTED AFTER THE FIRST OCCURRENCE OF THIS MESSAGE.

               CONVERGENCE CHECKS FOR EQUILIBRIUM ITERATION     6

   MAX. PENETRATION ERROR 22.7329E-15  AT NODE PART-2-1.34 OF CONTACT PAIR 
   (GENERAL_CONTACT_EDGES_2,GENERAL_CONTACT_FACES_1)
   MAX. CONTACT FORCE ERROR 1.91748E-12 AT NODE PART-2-1.34 OF CONTACT PAIR 
   (GENERAL_CONTACT_EDGES_2,GENERAL_CONTACT_FACES_1)
          THE CONTACT CONSTRAINTS HAVE CONVERGED.

 AVERAGE FORCE                      0.145       TIME AVG. FORCE       5.853E-02
 LARGEST RESIDUAL FORCE             1.039E-03   AT NODE        100   DOF  1
   INSTANCE: PART-1-1                                                                        
 LARGEST INCREMENT OF DISP.         -4.22       AT NODE         11   DOF  3
   INSTANCE: PART-1-2                                                                        
 LARGEST CORRECTION TO DISP.        1.443E-02   AT NODE          8   DOF  1
   INSTANCE: PART-1-1                                                                        
          FORCE     EQUILIBRIUM NOT ACHIEVED WITHIN TOLERANCE.

 AVERAGE MOMENT                     2.727E-02   TIME AVG. MOMENT      1.340E-02
 LARGEST RESIDUAL MOMENT            2.612E-06   AT NODE        101   DOF  5
   INSTANCE: PART-1-3                                                                        
 LARGEST INCREMENT OF ROTATION     -5.448E-02   AT NODE         11   DOF  5
   INSTANCE: PART-1-3                                                                        
 LARGEST CORRECTION TO ROTATION    -5.911E-04   AT NODE         11   DOF  5
   INSTANCE: PART-1-3                                                                        
 ESTIMATE OF ROTATION CORRECTION   -1.469E-05
 MOMENT    EQUILIB. ACCEPTED BASED ON SMALL RESIDUAL AND ESTIMATED CORRECTION
 
	SYMMETRIC DIRECT SPARSE SOLVER RUNNING ON
 	1 HOST:        1 MPI RANK  x 2 THREADS
 	NUMBER OF EQUATIONS:     2778
 	NUMBER OF RHS:           1
 	NUMBER OF FLOPS:         4.679e+07

     CHECK POINT   START OF SOLVER    

     CHECK POINT  END OF SOLVER       

       ELAPSED USER TIME (SEC)      =   0.0000    
       ELAPSED SYSTEM TIME (SEC)    =   0.0000    
       ELAPSED TOTAL CPU TIME (SEC) =   0.0000    
       ELAPSED WALLCLOCK TIME (SEC) =          0
 

 ***WARNING: THE SYSTEM MATRIX HAS 1 NEGATIVE EIGENVALUES.
             EXPLANATIONS ARE SUGGESTED AFTER THE FIRST OCCURRENCE OF THIS MESSAGE.

               CONVERGENCE CHECKS FOR EQUILIBRIUM ITERATION     7

   MAX. PENETRATION ERROR 575.495E-18   AT NODE PART-2-1.34 OF CONTACT PAIR 
   (GENERAL_CONTACT_EDGES_2,GENERAL_CONTACT_FACES_1)
   MAX. CONTACT FORCE ERROR 48.5419E-15  AT NODE PART-2-1.34 OF CONTACT PAIR 
   (GENERAL_CONTACT_EDGES_2,GENERAL_CONTACT_FACES_1)
          THE CONTACT CONSTRAINTS HAVE CONVERGED.

 AVERAGE FORCE                      0.145       TIME AVG. FORCE       5.854E-02
 LARGEST RESIDUAL FORCE             2.587E-07   AT NODE         12   DOF  1
   INSTANCE: PART-1-1                                                                        
 LARGEST INCREMENT OF DISP.         -4.22       AT NODE         11   DOF  3
   INSTANCE: PART-1-2                                                                        
 LARGEST CORRECTION TO DISP.        2.152E-04   AT NODE        116   DOF  3
   INSTANCE: PART-1-3                                                                        
          THE FORCE     EQUILIBRIUM EQUATIONS HAVE CONVERGED

 AVERAGE MOMENT                     2.728E-02   TIME AVG. MOMENT      1.340E-02
 LARGEST RESIDUAL MOMENT            3.025E-08   AT NODE         78   DOF  4
   INSTANCE: PART-1-3                                                                        
 LARGEST INCREMENT OF ROTATION     -5.449E-02   AT NODE         11   DOF  5
   INSTANCE: PART-1-3                                                                        
 LARGEST CORRECTION TO ROTATION    -1.243E-05   AT NODE        121   DOF  5
   INSTANCE: PART-1-3                                                                        
          THE MOMENT    EQUILIBRIUM EQUATIONS HAVE CONVERGED

[...]
 LARGEST CORRECTION TO DISP.       -3.857E-03   AT NODE          8   DOF  1
   INSTANCE: PART-1-2                                                                        
          FORCE     EQUILIBRIUM NOT ACHIEVED WITHIN TOLERANCE.

 AVERAGE MOMENT                     0.157       TIME AVG. MOMENT      0.109    
 LARGEST RESIDUAL MOMENT           -2.378E-04   AT NODE         65   DOF  5
   INSTANCE: PART-1-2                                                                        
 LARGEST INCREMENT OF ROTATION     -0.182       AT NODE        121   DOF  5
   INSTANCE: PART-1-2                                                                        
 LARGEST CORRECTION TO ROTATION    -3.799E-04   AT NODE         66   DOF  5
   INSTANCE: PART-1-2                                                                        
          THE MOMENT    EQUILIBRIUM EQUATIONS HAVE CONVERGED
 
	SYMMETRIC DIRECT SPARSE SOLVER RUNNING ON
 	1 HOST:        1 MPI RANK  x 2 THREADS
 	NUMBER OF EQUATIONS:     2778
 	NUMBER OF RHS:           1
 	NUMBER OF FLOPS:         3.670e+07

     CHECK POINT   START OF SOLVER    

     CHECK POINT  END OF SOLVER       

       ELAPSED USER TIME (SEC)      =  0.10000    
       ELAPSED SYSTEM TIME (SEC)    =   0.0000    
       ELAPSED TOTAL CPU TIME (SEC) =  0.10000    
       ELAPSED WALLCLOCK TIME (SEC) =          0

               CONVERGENCE CHECKS FOR EQUILIBRIUM ITERATION     7


 AVERAGE FORCE                      5.737E-02   TIME AVG. FORCE       5.355E-02
 LARGEST RESIDUAL FORCE             2.178E-06   AT NODE         65   DOF  3
   INSTANCE: PART-1-2                                                                        
 LARGEST INCREMENT OF DISP.          4.45       AT NODE          4   DOF  1
   INSTANCE: PART-1-2                                                                        
 LARGEST CORRECTION TO DISP.        3.092E-04   AT NODE         64   DOF  1
   INSTANCE: PART-1-2                                                                        
          THE FORCE     EQUILIBRIUM EQUATIONS HAVE CONVERGED

 AVERAGE MOMENT                     0.157       TIME AVG. MOMENT      0.109    
 LARGEST RESIDUAL MOMENT            1.762E-06   AT NODE         21   DOF  5
   INSTANCE: PART-1-2                                                                        
 LARGEST INCREMENT OF ROTATION     -0.182       AT NODE        121   DOF  5
   INSTANCE: PART-1-2                                                                        
 LARGEST CORRECTION TO ROTATION    -4.425E-05   AT NODE         66   DOF  5
   INSTANCE: PART-1-2                                                                        
          THE MOMENT    EQUILIBRIUM EQUATIONS HAVE CONVERGED

 ITERATION SUMMARY FOR THE INCREMENT:   7 TOTAL ITERATIONS, OF WHICH
   0 ARE SEVERE DISCONTINUITY ITERATIONS AND  7 ARE EQUILIBRIUM ITERATIONS.

 TIME INCREMENT COMPLETED  1.255E-03,  FRACTION OF STEP COMPLETED  0.425    
 STEP TIME COMPLETED       0.425    ,  TOTAL TIME COMPLETED        0.425    


  INCREMENT   216 STARTS. ATTEMPT NUMBER  1, TIME INCREMENT  1.255E-03
 
	SYMMETRIC DIRECT SPARSE SOLVER RUNNING ON
 	1 HOST:        1 MPI RANK  x 2 THREADS
 	NUMBER OF EQUATIONS:     2778
 	NUMBER OF RHS:           1
 	NUMBER OF FLOPS:         3.670e+07

     CHECK POINT   START OF SOLVER    

     CHECK POINT  END OF SOLVER       

       ELAPSED USER TIME (SEC)      =   0.0000    
       ELAPSED SYSTEM TIME (SEC)    =   0.0000    
       ELAPSED TOTAL CPU TIME (SEC) =   0.0000    
       ELAPSED WALLCLOCK TIME (SEC) =          0

               CONVERGENCE CHECKS FOR EQUILIBRIUM ITERATION     1


 AVERAGE FORCE                      0.872       TIME AVG. FORCE       5.734E-02
 LARGEST RESIDUAL FORCE             -9.41       AT NODE        110   DOF  1
   INSTANCE: PART-1-1                                                                        
 LARGEST INCREMENT OF DISP.          4.86       AT NODE         61   DOF  1
   INSTANCE: PART-1-1                                                                        
 LARGEST CORRECTION TO DISP.         1.26       AT NODE         62   DOF  1
   INSTANCE: PART-1-1                                                                        
          FORCE     EQUILIBRIUM NOT ACHIEVED WITHIN TOLERANCE.

 AVERAGE MOMENT                     0.265       TIME AVG. MOMENT      0.110    
 LARGEST RESIDUAL MOMENT            -9.01       AT NODE         65   DOF  5
   INSTANCE: PART-1-2                                                                        
 LARGEST INCREMENT OF ROTATION     -0.231       AT NODE        121   DOF  5
   INSTANCE: PART-1-2                                                                        
 LARGEST CORRECTION TO ROTATION    -7.550E-02   AT NODE        121   DOF  5
   INSTANCE: PART-1-1                                                                        
          MOMENT    EQUILIBRIUM NOT ACHIEVED WITHIN TOLERANCE.
 
	SYMMETRIC DIRECT SPARSE SOLVER RUNNING ON
 	1 HOST:        1 MPI RANK  x 2 THREADS
 	NUMBER OF EQUATIONS:     2778
 	NUMBER OF RHS:           1
 	NUMBER OF FLOPS:         3.670e+07

     CHECK POINT   START OF SOLVER    

     CHECK POINT  END OF SOLVER       

       ELAPSED USER TIME (SEC)      =  0.10000    
       ELAPSED SYSTEM TIME (SEC)    =   0.0000    
       ELAPSED TOTAL CPU TIME (SEC) =  0.10000    
       ELAPSED WALLCLOCK TIME (SEC) =          0

               CONVERGENCE CHECKS FOR EQUILIBRIUM ITERATION     2


 AVERAGE FORCE                      0.152       TIME AVG. FORCE       5.401E-02
 LARGEST RESIDUAL FORCE              2.59       AT NODE        110   DOF  3
   INSTANCE: PART-1-1                                                                        
 LARGEST INCREMENT OF DISP.          4.76       AT NODE          6   DOF  1
   INSTANCE: PART-1-1                                                                        
 LARGEST CORRECTION TO DISP.       -0.465       AT NODE         62   DOF  1
   INSTANCE: PART-1-2                                                                        
          FORCE     EQUILIBRIUM NOT ACHIEVED WITHIN TOLERANCE.

 AVERAGE MOMENT                     0.173       TIME AVG. MOMENT      0.110    
 LARGEST RESIDUAL MOMENT           -0.157       AT NODE         90   DOF  5
   INSTANCE: PART-2-1                                                                        
 LARGEST INCREMENT OF ROTATION     -0.194       AT NODE        121   DOF  5
   INSTANCE: PART-1-2                                                                        
 LARGEST CORRECTION TO ROTATION     4.104E-02   AT NODE        111   DOF  5
   INSTANCE: PART-2-1                                                                        
          MOMENT    EQUILIBRIUM NOT ACHIEVED WITHIN TOLERANCE.
 
	SYMMETRIC DIRECT SPARSE SOLVER RUNNING ON
 	1 HOST:        1 MPI RANK  x 2 THREADS
 	NUMBER OF EQUATIONS:     2778
 	NUMBER OF RHS:           1
 	NUMBER OF FLOPS:         3.670e+07

     CHECK POINT   START OF SOLVER    

     CHECK POINT  END OF SOLVER       

       ELAPSED USER TIME (SEC)      =   0.0000    
       ELAPSED SYSTEM TIME (SEC)    =   0.0000    
       ELAPSED TOTAL CPU TIME (SEC) =   0.0000    
       ELAPSED WALLCLOCK TIME (SEC) =          0

               CONVERGENCE CHECKS FOR EQUILIBRIUM ITERATION     3


 AVERAGE FORCE                      5.845E-02   TIME AVG. FORCE       5.357E-02
 LARGEST RESIDUAL FORCE             0.691       AT NODE         65   DOF  3
   INSTANCE: PART-1-2                                                                        
 LARGEST INCREMENT OF DISP.          4.75       AT NODE          6   DOF  1
   INSTANCE: PART-1-1                                                                        
 LARGEST CORRECTION TO DISP.       -0.171       AT NODE         63   DOF  1
   INSTANCE: PART-1-2                                                                        
          FORCE     EQUILIBRIUM NOT ACHIEVED WITHIN TOLERANCE.

 AVERAGE MOMENT                     0.164       TIME AVG. MOMENT      0.110    
 LARGEST RESIDUAL MOMENT            8.218E-02   AT NODE         21   DOF  5
   INSTANCE: PART-1-2                                                                        
 LARGEST INCREMENT OF ROTATION     -0.168       AT NODE        121   DOF  5
   INSTANCE: PART-1-2                                                                        
 LARGEST CORRECTION TO ROTATION     2.653E-02   AT NODE         66   DOF  5
   INSTANCE: PART-1-2                                                                        
          MOMENT    EQUILIBRIUM NOT ACHIEVED WITHIN TOLERANCE.
 
	SYMMETRIC DIRECT SPARSE SOLVER RUNNING ON
 	1 HOST:        1 MPI RANK  x 2 THREADS
 	NUMBER OF EQUATIONS:     2778
 	NUMBER OF RHS:           1
 	NUMBER OF FLOPS:         3.670e+07

     CHECK POINT   START OF SOLVER    

     CHECK POINT  END OF SOLVER       

       ELAPSED USER TIME (SEC)      =   0.0000    
       ELAPSED SYSTEM TIME (SEC)    =   0.0000    
       ELAPSED TOTAL CPU TIME (SEC) =   0.0000    
       ELAPSED WALLCLOCK TIME (SEC) =          0

               CONVERGENCE CHECKS FOR EQUILIBRIUM ITERATION     4


 AVERAGE FORCE                      5.481E-02   TIME AVG. FORCE       5.356E-02
 LARGEST RESIDUAL FORCE             0.367       AT NODE         65   DOF  3
   INSTANCE: PART-1-2                                                                        
 LARGEST INCREMENT OF DISP.          4.78       AT NODE          6   DOF  1
   INSTANCE: PART-1-1                                                                        
 LARGEST CORRECTION TO DISP.       -0.163       AT NODE         63   DOF  1
   INSTANCE: PART-1-2                                                                        
          FORCE     EQUILIBRIUM NOT ACHIEVED WITHIN TOLERANCE.

 AVERAGE MOMENT                     0.161       TIME AVG. MOMENT      0.110    
 LARGEST RESIDUAL MOMENT            1.393E-02   AT NODE         65   DOF  5
   INSTANCE: PART-1-2                                                                        
 LARGEST INCREMENT OF ROTATION     -0.147       AT NODE        121   DOF  5
   INSTANCE: PART-1-2                                                                        
 LARGEST CORRECTION TO ROTATION     2.099E-02   AT NODE         11   DOF  5
   INSTANCE: PART-1-2                                                                        
          MOMENT    EQUILIBRIUM NOT ACHIEVED WITHIN TOLERANCE.
 
	SYMMETRIC DIRECT SPARSE SOLVER RUNNING ON
 	1 HOST:        1 MPI RANK  x 2 THREADS
 	NUMBER OF EQUATIONS:     2778
 	NUMBER OF RHS:           1
 	NUMBER OF FLOPS:         3.670e+07

     CHECK POINT   START OF SOLVER    

     CHECK POINT  END OF SOLVER       

       ELAPSED USER TIME (SEC)      =  0.10000    
       ELAPSED SYSTEM TIME (SEC)    =   0.0000    
       ELAPSED TOTAL CPU TIME (SEC) =  0.10000    
       ELAPSED WALLCLOCK TIME (SEC) =          0

               CONVERGENCE CHECKS FOR EQUILIBRIUM ITERATION     5


 AVERAGE FORCE                      5.020E-02   TIME AVG. FORCE       5.353E-02
 LARGEST RESIDUAL FORCE             3.644E-02   AT NODE         65   DOF  3
   INSTANCE: PART-1-2                                                                        
 LARGEST INCREMENT OF DISP.          4.78       AT NODE          6   DOF  1
   INSTANCE: PART-1-1                                                                        
 LARGEST CORRECTION TO DISP.       -4.394E-02   AT NODE         63   DOF  1
   INSTANCE: PART-1-2                                                                        
          FORCE     EQUILIBRIUM NOT ACHIEVED WITHIN TOLERANCE.

 AVERAGE MOMENT                     0.160       TIME AVG. MOMENT      0.110    
 LARGEST RESIDUAL MOMENT            4.836E-03   AT NODE         65   DOF  5
   INSTANCE: PART-1-2                                                                        
 LARGEST INCREMENT OF ROTATION     -0.140       AT NODE        121   DOF  5
   INSTANCE: PART-1-2                                                                        
 LARGEST CORRECTION TO ROTATION     6.246E-03   AT NODE        121   DOF  5
   INSTANCE: PART-1-2                                                                        
          MOMENT    EQUILIBRIUM NOT ACHIEVED WITHIN TOLERANCE.
 
	SYMMETRIC DIRECT SPARSE SOLVER RUNNING ON
 	1 HOST:        1 MPI RANK  x 2 THREADS
 	NUMBER OF EQUATIONS:     2778
 	NUMBER OF RHS:           1
 	NUMBER OF FLOPS:         3.670e+07

     CHECK POINT   START OF SOLVER    

     CHECK POINT  END OF SOLVER       

       ELAPSED USER TIME (SEC)      =   0.0000    
       ELAPSED SYSTEM TIME (SEC)    =   0.0000    
       ELAPSED TOTAL CPU TIME (SEC) =   0.0000    
       ELAPSED WALLCLOCK TIME (SEC) =          0

               CONVERGENCE CHECKS FOR EQUILIBRIUM ITERATION     6


 AVERAGE FORCE                      5.051E-02   TIME AVG. FORCE       5.354E-02
 LARGEST RESIDUAL FORCE             2.100E-03   AT NODE         65   DOF  3
   INSTANCE: PART-1-2                                                                        
 LARGEST INCREMENT OF DISP.          4.78       AT NODE          6   DOF  1
   INSTANCE: PART-1-1                                                                        
 LARGEST CORRECTION TO DISP.       -1.068E-02   AT NODE         63   DOF  1
   INSTANCE: PART-1-2                                                                        
          FORCE     EQUILIBRIUM NOT ACHIEVED WITHIN TOLERANCE.

 AVERAGE MOMENT                     0.159       TIME AVG. MOMENT      0.110    
 LARGEST RESIDUAL MOMENT            9.587E-05   AT NODE         65   DOF  5
   INSTANCE: PART-1-2                                                                        
 LARGEST INCREMENT OF ROTATION     -0.139       AT NODE        121   DOF  5
   INSTANCE: PART-1-2                                                                        
 LARGEST CORRECTION TO ROTATION     1.505E-03   AT NODE        121   DOF  5
   INSTANCE: PART-1-2                                                                        
 ESTIMATE OF ROTATION CORRECTION    2.984E-05
 MOMENT    EQUILIB. ACCEPTED BASED ON SMALL RESIDUAL AND ESTIMATED CORRECTION
 
	SYMMETRIC DIRECT SPARSE SOLVER RUNNING ON
 	1 HOST:        1 MPI RANK  x 2 THREADS
 	NUMBER OF EQUATIONS:     2778
 	NUMBER OF RHS:           1
 	NUMBER OF FLOPS:         3.670e+07

     CHECK POINT   START OF SOLVER    

     CHECK POINT  END OF SOLVER       

       ELAPSED USER TIME (SEC)      =   0.0000    
       ELAPSED SYSTEM TIME (SEC)    =   0.0000    
       ELAPSED TOTAL CPU TIME (SEC) =   0.0000    
       ELAPSED WALLCLOCK TIME (SEC) =          0

               CONVERGENCE CHECKS FOR EQUILIBRIUM ITERATION     7


 AVERAGE FORCE                      5.052E-02   TIME AVG. FORCE       5.354E-02
 LARGEST RESIDUAL FORCE             8.818E-07   AT NODE         65   DOF  3
   INSTANCE: PART-1-2                                                                        
 LARGEST INCREMENT OF DISP.          4.78       AT NODE          6   DOF  1
   INSTANCE: PART-1-1                                                                        
 LARGEST CORRECTION TO DISP.       -2.108E-04   AT NODE         63   DOF  1
   INSTANCE: PART-1-2                                                                        
          THE FORCE     EQUILIBRIUM EQUATIONS HAVE CONVERGED

 AVERAGE MOMENT                     0.160       TIME AVG. MOMENT      0.110    
 LARGEST RESIDUAL MOMENT            2.576E-07   AT NODE        119   DOF  6
   INSTANCE: PART-1-2                                                                        
 LARGEST INCREMENT OF ROTATION     -0.139       AT NODE        121   DOF  5
   INSTANCE: PART-1-2                                                                        
 LARGEST CORRECTION TO ROTATION     3.011E-05   AT NODE        121   DOF  5
   INSTANCE: PART-1-2                                                                        
          THE MOMENT    EQUILIBRIUM EQUATIONS HAVE CONVERGED

 ITERATION SUMMARY FOR THE INCREMENT:   7 TOTAL ITERATIONS, OF WHICH
   0 ARE SEVERE DISCONTINUITY ITERATIONS AND  7 ARE EQUILIBRIUM ITERATIONS.

 TIME INCREMENT COMPLETED  1.255E-03,  FRACTION OF STEP COMPLETED  0.427    
 STEP TIME COMPLETED       0.427    ,  TOTAL TIME COMPLETED        0.427    


  INCREMENT   217 STARTS. ATTEMPT NUMBER  1, TIME INCREMENT  1.255E-03
 
	SYMMETRIC DIRECT SPARSE SOLVER RUNNING ON
 	1 HOST:        1 MPI RANK  x 2 THREADS
 	NUMBER OF EQUATIONS:     2778
 	NUMBER OF RHS:           1
 	NUMBER OF FLOPS:         3.670e+07

     CHECK POINT   START OF SOLVER    

     CHECK POINT  END OF SOLVER       

       ELAPSED USER TIME (SEC)      =  0.10000    
       ELAPSED SYSTEM TIME (SEC)    =   0.0000    
       ELAPSED TOTAL CPU TIME (SEC) =  0.10000    
       ELAPSED WALLCLOCK TIME (SEC) =          0

               CONVERGENCE CHECKS FOR EQUILIBRIUM ITERATION     1


 AVERAGE FORCE                       1.45       TIME AVG. FORCE       5.999E-02
 LARGEST RESIDUAL FORCE              23.0       AT NODE         56   DOF  3
   INSTANCE: PART-1-1                                                                        
 LARGEST INCREMENT OF DISP.          4.98       AT NODE          6   DOF  1
   INSTANCE: PART-1-1                                                                        
 LARGEST CORRECTION TO DISP.         1.38       AT NODE         73   DOF  1
   INSTANCE: PART-2-1                                                                        
          FORCE     EQUILIBRIUM NOT ACHIEVED WITHIN TOLERANCE.

 AVERAGE MOMENT                     0.302       TIME AVG. MOMENT      0.111    
 LARGEST RESIDUAL MOMENT             6.46       AT NODE         19   DOF  5
   INSTANCE: PART-1-2                                                                        
 LARGEST INCREMENT OF ROTATION     -0.157       AT NODE        121   DOF  5
   INSTANCE: PART-1-1                                                                        
 LARGEST CORRECTION TO ROTATION    -0.111       AT NODE          1   DOF  5
   INSTANCE: PART-1-2                                                                        
          MOMENT    EQUILIBRIUM NOT ACHIEVED WITHIN TOLERANCE.
 
	SYMMETRIC DIRECT SPARSE SOLVER RUNNING ON
 	1 HOST:        1 MPI RANK  x 2 THREADS
 	NUMBER OF EQUATIONS:     2778
 	NUMBER OF RHS:           1
 	NUMBER OF FLOPS:         3.670e+07

     CHECK POINT   START OF SOLVER    

     CHECK POINT  END OF SOLVER       

       ELAPSED USER TIME (SEC)      =  0.10000    
       ELAPSED SYSTEM TIME (SEC)    =   0.0000    
       ELAPSED TOTAL CPU TIME (SEC) =  0.10000    
       ELAPSED WALLCLOCK TIME (SEC) =          0

 ***ERROR: Process terminated by external request (SIGTERM or SIGINT received).



     ANALYSIS SUMMARY:
     TOTAL OF        217  INCREMENTS
                      28  CUTBACKS IN AUTOMATIC INCREMENTATION
                    1228  ITERATIONS INCLUDING CONTACT ITERATIONS IF PRESENT
                    1228  PASSES THROUGH THE EQUATION SOLVER OF WHICH 
                    1228  INVOLVE MATRIX DECOMPOSITION, INCLUDING
                       0  DECOMPOSITION(S) OF THE MASS MATRIX
                       1  REORDERING OF EQUATIONS TO MINIMIZE WAVEFRONT
                       0  ADDITIONAL RESIDUAL EVALUATIONS FOR LINE SEARCHES
                       0  ADDITIONAL OPERATOR EVALUATIONS FOR LINE SEARCHES
                     748  WARNING MESSAGES DURING USER INPUT PROCESSING
                      93  WARNING MESSAGES DURING ANALYSIS
                       0  ANALYSIS WARNINGS ARE NUMERICAL PROBLEM MESSAGES
                      72  ANALYSIS WARNINGS ARE NEGATIVE EIGENVALUE MESSAGES
                       1  ERROR MESSAGES



     JOB TIME SUMMARY
       USER TIME (SEC)      =   236.70    
       SYSTEM TIME (SEC)    =   33.800    
       TOTAL CPU TIME (SEC) =   270.50    
       WALLCLOCK TIME (SEC) =        220
