 Abaqus/Standard 2022                  DATE 19-Dez-2023 TIME 15:19:41
 SUMMARY OF JOB INFORMATION:
 STEP  INC ATT SEVERE EQUIL TOTAL  TOTAL      STEP       INC OF       DOF    IF
               DISCON ITERS ITERS  TIME/    TIME/LPF    TIME/LPF    MONITOR RIKS
               ITERS               FREQ
   1     1   1U    1     1     2  0.00       0.00       0.3000    
   1     1   2U    5     0     5  0.00       0.00       0.07500   
   1     1   3     1     2     3  0.0187     0.0187     0.01875   
   1     2   1     0     2     2  0.0375     0.0375     0.01875   
   1     3   1     0     1     1  0.0656     0.0656     0.02812   
   1     4   1     0     1     1  0.108      0.108      0.04219   
   1     5   1     0     1     1  0.171      0.171      0.06328   
   1     6   1     0     1     1  0.266      0.266      0.09492   
   1     7   1     0     2     2  0.408      0.408      0.1424    
   1     8   1     0     2     2  0.622      0.622      0.2136    
   1     9   1     2     3     5  0.922      0.922      0.3000    
   1    10   1     1     3     4  1.00       1.00       0.07803   
   2     1   1U    0     1     1  1.00       0.00       1.000     
   2     1   2U    0     1     1  1.00       0.00       0.2500    
   2     1   3     2     1     3  1.06       0.0625     0.06250   
   2     2   1U    2     1     3  1.06       0.0625     0.06250   
   2     2   2U    0     1     1  1.06       0.0625     0.01562   
   2     2   3     1     1     2  1.07       0.0664     0.003906  
   2     3   1     0     1     1  1.07       0.0723     0.005859  
   2     4   1     0     1     1  1.08       0.0811     0.008789  
   2     5   1     0     1     1  1.09       0.0942     0.01318   
   2     6   1     0     1     1  1.11       0.114      0.01978   
   2     7   1     0     1     1  1.14       0.144      0.02966   
   2     8   1     0     1     1  1.19       0.188      0.04449   
   2     9   1     0     1     1  1.25       0.255      0.06674   
   2    10   1     0     1     1  1.36       0.355      0.1001    
   2    11   1U    0     1     1  1.36       0.355      0.1502    
   2    11   2     0     1     1  1.39       0.393      0.03754   
   2    12   1     0     1     1  1.45       0.449      0.05631   
   2    13   1U    0     1     1  1.45       0.449      0.08447   
   2    13   2     0     1     1  1.47       0.470      0.02112   
   2    14   1U    4     1     5  1.47       0.470      0.03168   
   2    14   2     0     1     1  1.48       0.478      0.007919  
   2    15   1U    1     1     2  1.48       0.478      0.01188   
   2    15   2     2     1     3  1.48       0.481      0.002970  
   2    16   1     0     2     2  1.49       0.485      0.004454  
   2    17   1     0     1     1  1.49       0.492      0.006682  
   2    18   1     1     1     2  1.50       0.502      0.01002   
   2    19   1     0     1     1  1.52       0.517      0.01503   
   2    20   1     0     1     1  1.54       0.540      0.02255   
   2    21   1     0     1     1  1.57       0.573      0.03383   
   2    22   1     0     1     1  1.62       0.624      0.05074   
   2    23   1U    0     1     1  1.62       0.624      0.07611   
   2    23   2     0     1     1  1.64       0.643      0.01903   
   2    24   1U    8     1     9  1.64       0.643      0.02854   
   2    24   2     0     1     1  1.65       0.650      0.007135  
   2    25   1     0     1     1  1.66       0.661      0.01070   
   2    26   1U    6     1     7  1.66       0.661      0.01605   
   2    26   2     0     1     1  1.67       0.665      0.004014  
   2    27   1     6     2     8  1.67       0.671      0.006020  
   2    28   1     0     2     2  1.68       0.680      0.009031  
   2    29   1     1     1     2  1.69       0.694      0.01355   
   2    30   1     0     1     1  1.71       0.714      0.02032   
   2    31   1     0     1     1  1.74       0.744      0.03048   
   2    32   1     3     1     4  1.79       0.790      0.04572   
   2    33   1     0     2     2  1.86       0.859      0.06858   
   2    34   1     0     1     1  1.96       0.962      0.1029    
   2    35   1     0     1     1  2.00       1.00       0.03837   
                          
 THE ANALYSIS HAS COMPLETED SUCCESSFULLY
