 Abaqus/Standard 2022                  DATE 19-Dez-2023 TIME 14:49:06
 SUMMARY OF JOB INFORMATION:
 STEP  INC ATT SEVERE EQUIL TOTAL  TOTAL      STEP       INC OF       DOF    IF
               DISCON ITERS ITERS  TIME/    TIME/LPF    TIME/LPF    MONITOR RIKS
               ITERS               FREQ
   1     1   1U    0     4     4  0.00       0.00       1.000     
   1     1   2U    0     5     5  0.00       0.00       0.2500    
   1     1   3     0     2     2  8.51e-08   8.51e-08   8.506e-08 
   1     2   1     0     1     1  1.70e-07   1.70e-07   8.506e-08 
   1     3   1     0     1     1  2.55e-07   2.55e-07   8.506e-08 
   1     4   1     0     1     1  3.61e-07   3.61e-07   1.063e-07 
   1     5   1     0     1     1  4.94e-07   4.94e-07   1.329e-07 
   1     6   1     0     1     1  6.61e-07   6.61e-07   1.661e-07 
   1     7   1     0     1     1  8.68e-07   8.68e-07   2.077e-07 
   1     8   1     0     1     1  1.13e-06   1.13e-06   2.596e-07 
   1     9   1     0     1     1  1.45e-06   1.45e-06   3.245e-07 
   1    10   1     0     1     1  1.86e-06   1.86e-06   4.056e-07 
   1    11   1     0     1     1  2.36e-06   2.36e-06   5.070e-07 
   1    12   1     0     1     1  3.00e-06   3.00e-06   6.337e-07 
   1    13   1     0     1     1  3.79e-06   3.79e-06   7.922e-07 
   1    14   1     0     1     1  4.78e-06   4.78e-06   9.902e-07 
   1    15   1     0     1     1  6.02e-06   6.02e-06   1.238e-06 
   1    16   1     0     1     1  7.57e-06   7.57e-06   1.547e-06 
   1    17   1     0     1     1  9.50e-06   9.50e-06   1.934e-06 
   1    18   1     0     1     1  1.19e-05   1.19e-05   2.417e-06 
   1    19   1     0     1     1  1.49e-05   1.49e-05   3.022e-06 
   1    20   1     0     1     1  1.87e-05   1.87e-05   3.777e-06 
   1    21   1     0     2     2  2.34e-05   2.34e-05   4.722e-06 
   1    22   1     0     2     2  2.93e-05   2.93e-05   5.902e-06 
   1    23   1     0     2     2  3.61e-05   3.61e-05   6.765e-06 
   1    24   1     0     2     2  4.29e-05   4.29e-05   6.765e-06 
   1    25   1     0     2     2  4.96e-05   4.96e-05   6.765e-06 
   1    26   1     0     2     2  5.81e-05   5.81e-05   8.456e-06 
   1    27   1     0     2     2  6.87e-05   6.87e-05   1.057e-05 
   1    28   1     0     2     2  8.10e-05   8.10e-05   1.232e-05 
   1    29   1     0     2     2  9.33e-05   9.33e-05   1.232e-05 
   1    30   1     0     2     2  0.000106   0.000106   1.232e-05 
   1    31   1     0     2     2  0.000121   0.000121   1.540e-05 
   1    32   1     0     2     2  0.000139   0.000139   1.838e-05 
   1    33   1     0     2     2  0.000158   0.000158   1.838e-05 
   1    34   1     0     2     2  0.000176   0.000176   1.838e-05 
   1    35   1     0     2     2  0.000196   0.000196   2.033e-05 
   1    36   1     0     2     2  0.000217   0.000217   2.033e-05 
   1    37   1     0     2     2  0.000237   0.000237   2.033e-05 
   1    38   1     0     2     2  0.000260   0.000260   2.305e-05 
   1    39   1     0     2     2  0.000283   0.000283   2.305e-05 
   1    40   1     0     2     2  0.000309   0.000309   2.601e-05 
   1    41   1     0     2     2  0.000335   0.000335   2.601e-05 
   1    42   1     0     2     2  0.000364   0.000364   2.919e-05 
   1    43   1     0     2     2  0.000394   0.000394   2.919e-05 
   1    44   1     0     2     2  0.000427   0.000427   3.379e-05 
   1    45   1     0     2     2  0.000461   0.000461   3.379e-05 
   1    46   1     0     2     2  0.000500   0.000500   3.892e-05 
   1    47   1     0     2     2  0.000539   0.000539   3.892e-05 
   1    48   1     0     2     2  0.000585   0.000585   4.590e-05 
   1    49   1     0     2     2  0.000631   0.000631   4.590e-05 
   1    50   1     0     2     2  0.000686   0.000686   5.480e-05 
   1    51   1     0     2     2  0.000740   0.000740   5.480e-05 
   1    52   1     0     2     2  0.000806   0.000806   6.600e-05 
   1    53   1     0     2     2  0.000872   0.000872   6.600e-05 
   1    54   1     0     2     2  0.000952   0.000952   7.959e-05 
   1    55   1     0     2     2  0.00103    0.00103    7.959e-05 
   1    56   1     0     2     2  0.00113    0.00113    9.406e-05 
   1    57   1     0     2     2  0.00122    0.00122    9.406e-05 
   1    58   1     0     2     2  0.00133    0.00133    0.0001147 
   1    59   1     0     2     2  0.00145    0.00145    0.0001147 
   1    60   1     0     2     2  0.00159    0.00159    0.0001426 
   1    61   1     0     2     2  0.00173    0.00173    0.0001426 
   1    62   1     0     2     2  0.00191    0.00191    0.0001715 
   1    63   1     0     2     2  0.00208    0.00208    0.0001715 
   1    64   1     0     2     2  0.00228    0.00228    0.0002057 
   1    65   1     0     2     2  0.00249    0.00249    0.0002057 
   1    66   1     0     2     2  0.00275    0.00275    0.0002571 
   1    67   1     0     2     2  0.00300    0.00300    0.0002571 
   1    68   1     0     2     2  0.00332    0.00332    0.0003214 
   1    69   1     0     2     2  0.00365    0.00365    0.0003214 
   1    70   1     0     2     2  0.00405    0.00405    0.0004018 
   1    71   1     0     2     2  0.00445    0.00445    0.0004018 
   1    72   1     0     2     2  0.00495    0.00495    0.0005022 
   1    73   1     0     2     2  0.00545    0.00545    0.0005022 
   1    74   1     0     2     2  0.00596    0.00596    0.0005022 
   1    75   1     0     2     2  0.00646    0.00646    0.0005022 
   1    76   1     0     2     2  0.00696    0.00696    0.0005022 
   1    77   1     0     2     2  0.00752    0.00752    0.0005555 
   1    78   1     0     2     2  0.00807    0.00807    0.0005555 
   1    79   1     0     2     2  0.00863    0.00863    0.0005555 
   1    80   1     0     2     2  0.00918    0.00918    0.0005555 
   1    81   1     0     2     2  0.00981    0.00981    0.0006248 
   1    82   1     0     2     2  0.0104     0.0104     0.0006248 
   1    83   1     0     2     2  0.0111     0.0111     0.0006248 
   1    84   1     0     2     2  0.0117     0.0117     0.0006248 
   1    85   1     0     2     2  0.0124     0.0124     0.0007523 
   1    86   1     0     2     2  0.0132     0.0132     0.0007523 
   1    87   1     0     2     2  0.0139     0.0139     0.0007523 
   1    88   1     0     2     2  0.0147     0.0147     0.0007523 
   1    89   1     0     2     2  0.0156     0.0156     0.0009368 
   1    90   1     0     2     2  0.0166     0.0166     0.0009368 
   1    91   1     0     2     2  0.0175     0.0175     0.0009368 
   1    92   1     0     2     2  0.0184     0.0184     0.0009368 
   1    93   1     0     2     2  0.0196     0.0196     0.001171  
   1    94   1     0     2     2  0.0208     0.0208     0.001171  
   1    95   1     0     2     2  0.0221     0.0221     0.001343  
   1    96   1     0     2     2  0.0235     0.0235     0.001343  
   1    97   1     0     2     2  0.0250     0.0250     0.001537  
   1    98   1     0     2     2  0.0265     0.0265     0.001537  
   1    99   1     0     2     2  0.0284     0.0284     0.001830  
   1   100   1     0     2     2  0.0302     0.0302     0.001830  
   1   101   1     0     2     2  0.0324     0.0324     0.002224  
   1   102   1     0     2     2  0.0346     0.0346     0.002224  
   1   103   1     0     2     2  0.0374     0.0374     0.002709  
   1   104   1     0     2     2  0.0401     0.0401     0.002709  
   1   105   1     0     2     2  0.0435     0.0435     0.003385  
   1   106   1     0     2     2  0.0468     0.0468     0.003385  
   1   107   1     0     3     3  0.0511     0.0511     0.004232  
   1   108   1     0     3     3  0.0553     0.0553     0.004232  
   1   109   1     0     3     3  0.0606     0.0606     0.005289  
   1   110   1     0     3     3  0.0659     0.0659     0.005289  
   1   111   1     0     2     2  0.0725     0.0725     0.006612  
   1   112   1     0     4     4  0.0808     0.0808     0.008265  
   1   113   1     0     4     4  0.0910     0.0910     0.01024   
   1   114   1     0     3     3  0.101      0.101      0.01024   
   1   115   1     0     4     4  0.114      0.114      0.01280   
   1   116   1     0     6     6  0.130      0.130      0.01600   
   1   117   1     0     4     4  0.146      0.146      0.01600   
   1   118   1     0     4     4  0.162      0.162      0.01600   
   1   119   1U    0     4     4  0.162      0.162      0.02000   
   1   119   2     0     2     2  0.167      0.167      0.005001  
   1   120   1     0     2     2  0.173      0.173      0.006251  
   1   121   1     0     4     4  0.181      0.181      0.007814  
   1   122   1     0     6     6  0.191      0.191      0.009768  
   1   123   1U    0     4     4  0.191      0.191      0.009768  
   1   123   2     0     3     3  0.193      0.193      0.002442  
   1   124   1     0     3     3  0.196      0.196      0.002442  
   1   125   1     0     4     4  0.199      0.199      0.003052  
   1   126   1     0     6     6  0.203      0.203      0.003816  
   1   127   1     0     5     5  0.206      0.206      0.003816  
   1   128   1     0     4     4  0.210      0.210      0.003816  
   1   129   1     0     4     4  0.214      0.214      0.003816  
   1   130   1     0     4     4  0.219      0.219      0.004769  
   1   131   1     0     8     8  0.225      0.225      0.005962  
   1   132   1     0     6     6  0.231      0.231      0.005962  
   1   133   1U    0     6     6  0.231      0.231      0.005962  
   1   133   2     0     2     2  0.232      0.232      0.001490  
   1   134   1     0     2     2  0.234      0.234      0.001490  
   1   135   1     0     3     3  0.236      0.236      0.001863  
   1   136   1     0     3     3  0.238      0.238      0.002329  
   1   137   1     0     4     4  0.241      0.241      0.002911  
   1   138   1     0     5     5  0.245      0.245      0.003639  
   1   139   1     0     4     4  0.248      0.248      0.003639  
   1   140   1     0     4     4  0.252      0.252      0.003639  
   1   141   1     0     5     5  0.256      0.256      0.004549  
   1   142   1     0     4     4  0.261      0.261      0.004549  
   1   143   1     0     4     4  0.265      0.265      0.004549  
   1   144   1U    0     7     7  0.265      0.265      0.005686  
   1   144   2     0     2     2  0.267      0.267      0.001421  
   1   145   1     0     3     3  0.269      0.269      0.001777  
   1   146   1     0     3     3  0.271      0.271      0.002221  
   1   147   1     0     5     5  0.274      0.274      0.002776  
   1   148   1     0     3     3  0.276      0.276      0.002776  
   1   149   1     0     3     3  0.279      0.279      0.002776  
   1   150   1     0     4     4  0.283      0.283      0.003470  
   1   151   1     0     5     5  0.287      0.287      0.004338  
   1   152   1     0     4     4  0.291      0.291      0.004338  
   1   153   1     0     7     7  0.296      0.296      0.004338  
   1   154   1     0     5     5  0.300      0.300      0.004338  
   1   155   1     0     4     4  0.304      0.304      0.004338  
   1   156   1U    0     4     4  0.304      0.304      0.004338  
   1   156   2     0     2     2  0.305      0.305      0.001084  
   1   157   1     0     3     3  0.307      0.307      0.001356  
   1   158   1     0     3     3  0.308      0.308      0.001694  
   1   159   1     0     4     4  0.311      0.311      0.002118  
   1   160   1     0     3     3  0.313      0.313      0.002648  
   1   161   1     0     4     4  0.317      0.317      0.003309  
   1   162   1     0     7     7  0.321      0.321      0.004137  
                          
 THE ANALYSIS HAS NOT BEEN COMPLETED
