 Abaqus/Standard 2022                  DATE 19-Dez-2023 TIME 15:41:09
 SUMMARY OF JOB INFORMATION:
 STEP  INC ATT SEVERE EQUIL TOTAL  TOTAL      STEP       INC OF       DOF    IF
               DISCON ITERS ITERS  TIME/    TIME/LPF    TIME/LPF    MONITOR RIKS
               ITERS               FREQ
   1     1   1U    1     1     2  0.00       0.00       0.1000    
   1     1   2U    7     0     7  0.00       0.00       0.02500   
   1     1   3     0     3     3  0.00625    0.00625    0.006250  
   1     2   1     1     3     4  0.0125     0.0125     0.006250  
   1     3   1     0     4     4  0.0219     0.0219     0.009375  
   1     4   1     0     3     3  0.0359     0.0359     0.01406   
   1     5   1     0     4     4  0.0570     0.0570     0.02109   
   1     6   1     0     4     4  0.0887     0.0887     0.03164   
   1     7   1U    0     6     6  0.0887     0.0887     0.04746   
   1     7   2     0     3     3  0.101      0.101      0.01187   
   1     8   1U    2     2     4  0.101      0.101      0.01780   
   1     8   2     0     2     2  0.105      0.105      0.004449  
   1     9   1     0     3     3  0.112      0.112      0.006674  
   1    10   1     0     4     4  0.122      0.122      0.01001   
   1    11   1U    5     2     7  0.122      0.122      0.01502   
   1    11   2     0     2     2  0.125      0.125      0.003754  
   1    12   1     0     3     3  0.131      0.131      0.005631  
   1    13   1     0     6     6  0.140      0.140      0.008447  
   1    14   1U    3     2     5  0.140      0.140      0.008447  
   1    14   2     0     3     3  0.142      0.142      0.002112  
   1    15   1     0     2     2  0.144      0.144      0.002112  
   1    16   1     0     4     4  0.147      0.147      0.003168  
   1    17   1U    4     0     4  0.147      0.147      0.004751  
   1    17   2     0     2     2  0.148      0.148      0.001188  
   1    18   1     0     4     4  0.150      0.150      0.001782  
   1    19   1     0     6     6  0.153      0.153      0.002673  
   1    20   1U    1     2     3  0.153      0.153      0.002673  
   1    20   2     0     2     2  0.153      0.153      0.0006682 
   1    21   1     1     1     2  0.154      0.154      0.0006682 
   1    22   1     2     2     4  0.155      0.155      0.001002  
   1    23   1     0     4     4  0.156      0.156      0.001503  
   1    24   1     0     8     8  0.159      0.159      0.002255  
   1    25   1     0     6     6  0.161      0.161      0.002255  
   1    26   1     0     7     7  0.163      0.163      0.002255  
   1    27   1U    0     5     5  0.163      0.163      0.002255  
   1    27   2     0     3     3  0.164      0.164      0.0005638 
   1    28   1     0     2     2  0.164      0.164      0.0005638 
   1    29   1     0     3     3  0.165      0.165      0.0008457 
   1    30   1     0     4     4  0.166      0.166      0.001268  
   1    31   1     0     4     4  0.168      0.168      0.001903  
   1    32   1U    0     5     5  0.168      0.168      0.002854  
   1    32   2     0     3     3  0.169      0.169      0.0007135 
   1    33   1     0     3     3  0.170      0.170      0.001070  
   1    34   1     0     5     5  0.172      0.172      0.001605  
   1    35   1     0     5     5  0.173      0.173      0.001605  
   1    36   1     0     4     4  0.175      0.175      0.001605  
   1    37   1     0     4     4  0.176      0.176      0.001605  
   1    38   1     0     7     7  0.179      0.179      0.002408  
   1    39   1     0     7     7  0.181      0.181      0.002408  
   1    40   1     0     6     6  0.184      0.184      0.002408  
   1    41   1     0     7     7  0.186      0.186      0.002408  
   1    42   1U    0     5     5  0.186      0.186      0.002408  
   1    42   2     0     3     3  0.187      0.187      0.0006020 
   1    43   1     0     2     2  0.187      0.187      0.0006020 
   1    44   1     0     3     3  0.188      0.188      0.0009031 
   1    45   1     0     4     4  0.190      0.190      0.001355  
   1    46   1     0     4     4  0.192      0.192      0.002032  
   1    47   1U    2     4     6  0.192      0.192      0.003048  
   1    47   2     0     3     3  0.192      0.192      0.0007620 
   1    48   1     0     4     4  0.194      0.194      0.001143  
   1    49   1     0     5     5  0.195      0.195      0.001714  
   1    50   1     0     5     5  0.197      0.197      0.001714  
   1    51   1     0     4     4  0.199      0.199      0.001714  
   1    52   1     0     4     4  0.200      0.200      0.001714  
   1    53   1     0     7     7  0.203      0.203      0.002572  
   1    54   1     0     8     8  0.206      0.206      0.002572  
   1    55   1     0     6     6  0.208      0.208      0.002572  
   1    56   1U    0     5     5  0.208      0.208      0.002572  
   1    56   2     0     3     3  0.209      0.209      0.0006429 
   1    57   1     0     2     2  0.209      0.209      0.0006429 
   1    58   1     0     3     3  0.210      0.210      0.0009643 
   1    59   1     0     4     4  0.212      0.212      0.001447  
   1    60   1     0     5     5  0.214      0.214      0.002170  
   1    61   1     0     6     6  0.216      0.216      0.002170  
   1    62   1     0     7     7  0.218      0.218      0.002170  
   1    63   1     0     6     6  0.220      0.220      0.002170  
   1    64   1     0     5     5  0.223      0.223      0.002170  
   1    65   1     0     6     6  0.225      0.225      0.002170  
   1    66   1     0     7     7  0.227      0.227      0.002170  
   1    67   1     0     5     5  0.229      0.229      0.002170  
   1    68   1     0     4     4  0.231      0.231      0.002170  
   1    69   1     0     6     6  0.233      0.233      0.002170  
   1    70   1     0     7     7  0.236      0.236      0.002170  
   1    71   1     0     5     5  0.238      0.238      0.002170  
   1    72   1     0     6     6  0.240      0.240      0.002170  
   1    73   1     0     7     7  0.242      0.242      0.002170  
   1    74   1     0     5     5  0.244      0.244      0.002170  
   1    75   1     0     5     5  0.247      0.247      0.002170  
   1    76   1     0     6     6  0.249      0.249      0.002170  
   1    77   1     0     6     6  0.251      0.251      0.002170  
   1    78   1     0     5     5  0.253      0.253      0.002170  
   1    79   1     0     5     5  0.255      0.255      0.002170  
   1    80   1     0     6     6  0.257      0.257      0.002170  
   1    81   1     0     6     6  0.260      0.260      0.002170  
   1    82   1     0     5     5  0.262      0.262      0.002170  
   1    83   1     0     6     6  0.264      0.264      0.002170  
   1    84   1     0     7     7  0.266      0.266      0.002170  
   1    85   1     0     5     5  0.268      0.268      0.002170  
   1    86   1     0     6     6  0.270      0.270      0.002170  
   1    87   1     0     7     7  0.273      0.273      0.002170  
   1    88   1     0     5     5  0.275      0.275      0.002170  
   1    89   1     0     5     5  0.277      0.277      0.002170  
   1    90   1U    9     0     9  0.277      0.277      0.002170  
   1    90   2     0     2     2  0.277      0.277      0.0005424 
   1    91   1     0     2     2  0.278      0.278      0.0005424 
   1    92   1U    8     0     8  0.278      0.278      0.0008137 
   1    92   2     0     2     2  0.278      0.278      0.0002034 
   1    93   1     0     2     2  0.278      0.278      0.0003051 
   1    94   1     5     4     9  0.279      0.279      0.0004577 
   1    95   1U    4     0     4  0.279      0.279      0.0006865 
   1    95   2     1     3     4  0.279      0.279      0.0001716 
   1    96   1     0     3     3  0.279      0.279      0.0002574 
   1    97   1     0     4     4  0.280      0.280      0.0003862 
   1    98   1     2     2     4  0.280      0.280      0.0005793 
   1    99   1     1     4     5  0.281      0.281      0.0008689 
   1   100   1U    7     0     7  0.281      0.281      0.001303  
   1   100   2     0     3     3  0.282      0.282      0.0003258 
   1   101   1     2     5     7  0.282      0.282      0.0004888 
   1   102   1     0     3     3  0.283      0.283      0.0004888 
   1   103   1     1     3     4  0.283      0.283      0.0004888 
   1   104   1     4     2     6  0.284      0.284      0.0007331 
   1   105   1     4     2     6  0.285      0.285      0.001100  
   1   106   1     2     4     6  0.286      0.286      0.001650  
   1   107   1U    4     3     7  0.286      0.286      0.002474  
   1   107   2     3     1     4  0.287      0.287      0.0006186 
   1   108   1     1     4     5  0.288      0.288      0.0009279 
   1   109   1     2     3     5  0.289      0.289      0.001392  
   1   110   1U    2     1     3  0.289      0.289      0.002088  
   1   110   2     5     2     7  0.290      0.290      0.0005219 
   1   111   1U    4     0     4  0.290      0.290      0.0007829 
   1   111   2     5     1     6  0.290      0.290      0.0001957 
   1   112   1     4     1     5  0.290      0.290      0.0002936 
   1   113   1     5     1     6  0.291      0.291      0.0004404 
   1   114   1     4     2     6  0.292      0.292      0.0006606 
   1   115   1     1     3     4  0.293      0.293      0.0009908 
   1   116   1     1     5     6  0.294      0.294      0.001486  
   1   117   1     0     6     6  0.295      0.295      0.001486  
   1   118   1     0     5     5  0.297      0.297      0.001486  
   1   119   1     0     5     5  0.298      0.298      0.001486  
   1   120   1     0     5     5  0.300      0.300      0.001486  
   1   121   1     0     4     4  0.301      0.301      0.001486  
   1   122   1     0     6     6  0.303      0.303      0.001486  
   1   123   1     0     5     5  0.304      0.304      0.001486  
   1   124   1     0     4     4  0.306      0.306      0.001486  
   1   125   1     0     6     6  0.307      0.307      0.001486  
   1   126   1     0     6     6  0.309      0.309      0.001486  
   1   127   1     0     5     5  0.310      0.310      0.001486  
   1   128   1     0     5     5  0.312      0.312      0.001486  
   1   129   1     0     5     5  0.313      0.313      0.001486  
   1   130   1     0     5     5  0.315      0.315      0.001486  
   1   131   1     0     4     4  0.316      0.316      0.001486  
   1   132   1     0     5     5  0.318      0.318      0.001486  
   1   133   1     0     4     4  0.319      0.319      0.001486  
   1   134   1     0     5     5  0.321      0.321      0.001486  
   1   135   1     0     5     5  0.322      0.322      0.001486  
   1   136   1     0     4     4  0.324      0.324      0.001486  
   1   137   1     0     5     5  0.325      0.325      0.001486  
   1   138   1     0     4     4  0.327      0.327      0.001486  
   1   139   1     0     4     4  0.328      0.328      0.001486  
   1   140   1     0     8     8  0.330      0.330      0.002229  
   1   141   1     0     6     6  0.333      0.333      0.002229  
   1   142   1     0     5     5  0.335      0.335      0.002229  
   1   143   1     0     6     6  0.337      0.337      0.002229  
   1   144   1     0     5     5  0.339      0.339      0.002229  
   1   145   1     0     5     5  0.342      0.342      0.002229  
   1   146   1     0     4     4  0.344      0.344      0.002229  
   1   147   1     0     5     5  0.346      0.346      0.002229  
   1   148   1     0     4     4  0.348      0.348      0.002229  
   1   149   1     0     5     5  0.350      0.350      0.002229  
   1   150   1     0     4     4  0.353      0.353      0.002229  
   1   151   1     0     5     5  0.355      0.355      0.002229  
   1   152   1     0     5     5  0.357      0.357      0.002229  
   1   153   1     0     4     4  0.359      0.359      0.002229  
   1   154   1     0     4     4  0.362      0.362      0.002229  
   1   155   1     0     6     6  0.365      0.365      0.003344  
   1   156   1     0     5     5  0.368      0.368      0.003344  
   1   157   1     0     4     4  0.372      0.372      0.003344  
   1   158   1     0     4     4  0.375      0.375      0.003344  
   1   159   1     0     6     6  0.380      0.380      0.005016  
   1   160   1     0     6     6  0.385      0.385      0.005016  
   1   161   1     0     5     5  0.390      0.390      0.005016  
   1   162   1     0     5     5  0.395      0.395      0.005016  
   1   163   1     0     4     4  0.400      0.400      0.005016  
   1   164   1     0     5     5  0.405      0.405      0.005016  
   1   165   1     0     4     4  0.410      0.410      0.005016  
   1   166   1     0     4     4  0.415      0.415      0.005016  
   1   167   1     0     4     4  0.423      0.423      0.007524  
   1   168   1     0     8     8  0.434      0.434      0.01129   
   1   169   1     0     6     6  0.445      0.445      0.01129   
   1   170   1     0     5     5  0.457      0.457      0.01129   
   1   171   1     0     5     5  0.468      0.468      0.01129   
   1   172   1     0     4     4  0.479      0.479      0.01129   
   1   173   1     0     4     4  0.490      0.490      0.01129   
   1   174   1     0     5     5  0.507      0.507      0.01693   
   1   175   1     0     4     4  0.524      0.524      0.01693   
   1   176   1     0     4     4  0.541      0.541      0.01693   
   1   177   1     0     4     4  0.567      0.567      0.02539   
   1   178   1     0     5     5  0.605      0.605      0.03809   
   1   179   1     0     6     6  0.643      0.643      0.03809   
   1   180   1U    0     4     4  0.643      0.643      0.03809   
   1   180   2     0     2     2  0.652      0.652      0.009523  
   1   181   1     0     2     2  0.662      0.662      0.009523  
   1   182   1     0     4     4  0.676      0.676      0.01428   
   1   183   1     0     6     6  0.697      0.697      0.02143   
   1   184   1U    0     4     4  0.697      0.697      0.02143   
   1   184   2     0     2     2  0.703      0.703      0.005357  
   1   185   1     0     2     2  0.708      0.708      0.005357  
   1   186   1     0     3     3  0.716      0.716      0.008035  
   1   187   1     0     4     4  0.728      0.728      0.01205   
   1   188   1U    0     4     4  0.728      0.728      0.01808   
   1   188   2     0     2     2  0.733      0.733      0.004520  
   1   189   1     0     3     3  0.740      0.740      0.006779  
   1   190   1     0     5     5  0.750      0.750      0.01017   
   1   191   1     0     6     6  0.760      0.760      0.01017   
   1   192   1     0     6     6  0.770      0.770      0.01017   
   1   193   1U    0     7     7  0.770      0.770      0.01017   
   1   193   2     0     2     2  0.773      0.773      0.002542  
   1   194   1     0     2     2  0.775      0.775      0.002542  
   1   195   1     0     2     2  0.779      0.779      0.003813  
   1   196   1     0     4     4  0.785      0.785      0.005720  
   1   197   1U    4     0     4  0.785      0.785      0.008580  
   1   197   2     0     2     2  0.787      0.787      0.002145  
   1   198   1     0     2     2  0.790      0.790      0.003218  
   1   199   1U    5     0     5  0.790      0.790      0.004826  
   1   199   2     0     2     2  0.791      0.791      0.001207  
   1   200   1U    5     0     5  0.791      0.791      0.001810  
   1   200   2     0     1     1  0.792      0.792      0.0004525 
   1   201   1     1     3     4  0.792      0.792      0.0006787 
   1   202   1     0     3     3  0.793      0.793      0.001018  
   1   203   1     2     1     3  0.795      0.795      0.001527  
   1   204   1     1     3     4  0.797      0.797      0.002291  
   1   205   1     2     2     4  0.801      0.801      0.003436  
   1   206   1     2     4     6  0.806      0.806      0.005154  
   1   207   1U    0     7     7  0.806      0.806      0.007731  
   1   207   2     0     3     3  0.808      0.808      0.001933  
   1   208   1     0     4     4  0.811      0.811      0.002899  
   1   209   1     0     4     4  0.815      0.815      0.004349  
   1   210   1     0     6     6  0.822      0.822      0.006523  
   1   211   1     0     4     4  0.828      0.828      0.006523  
   1   212   1     0     4     4  0.835      0.835      0.006523  
   1   213   1     0     5     5  0.844      0.844      0.009784  
   1   214   1     0     4     4  0.854      0.854      0.009784  
   1   215   1     0     4     4  0.864      0.864      0.009784  
   1   216   1     0     4     4  0.879      0.879      0.01468   
   1   217   1     0     4     4  0.901      0.901      0.02201   
   1   218   1     7     1     8  0.934      0.934      0.03302   
   1   219   1U    5     1     6  0.934      0.934      0.04953   
   1   219   2     1     3     4  0.946      0.946      0.01238   
   1   220   1     2     4     6  0.965      0.965      0.01858   
   1   221   1U    0     4     4  0.965      0.965      0.02786   
   1   221   2     0     4     4  0.972      0.972      0.006966  
   1   222   1     0     4     4  0.982      0.982      0.01045   
   1   223   1     0     4     4  0.998      0.998      0.01567   
   1   224   1     0     2     2  1.00       1.00       0.002292  
   2     1   1U    0     1     1  1.00       0.00       1.000     
   2     1   2U    0     1     1  1.00       0.00       0.2500    
   2     1   3U    1     1     2  1.00       0.00       0.06250   
   2     1   4     0     4     4  1.02       0.0156     0.01562   
   2     2   1U    5     0     5  1.02       0.0156     0.01562   
   2     2   2     0     3     3  1.02       0.0195     0.003906  
   2     3   1     0     3     3  1.03       0.0254     0.005859  
   2     4   1U    7     0     7  1.03       0.0254     0.008789  
   2     4   2     0     2     2  1.03       0.0276     0.002197  
   2     5   1     7     3    10  1.03       0.0309     0.003296  
   2     6   1     0     6     6  1.04       0.0358     0.004944  
   2     7   1     1     4     5  1.04       0.0408     0.004944  
   2     8   1     0     4     4  1.05       0.0457     0.004944  
   2     9   1U    3     1     4  1.05       0.0457     0.007416  
   2     9   2     4     3     7  1.05       0.0476     0.001854  
   2    10   1     0     5     5  1.05       0.0504     0.002781  
   2    11   1     1     4     5  1.05       0.0531     0.002781  
   2    12   1     0     4     4  1.06       0.0559     0.002781  
   2    13   1     0     4     4  1.06       0.0601     0.004171  
   2    14   1     0     4     4  1.07       0.0663     0.006257  
   2    15   1     0     4     4  1.08       0.0757     0.009386  
   2    16   1U    7     0     7  1.08       0.0757     0.01408   
   2    16   2     0     3     3  1.08       0.0792     0.003520  
   2    17   1U    9     0     9  1.08       0.0792     0.005279  
   2    17   2     0     2     2  1.08       0.0806     0.001320  
   2    18   1     2     2     4  1.08       0.0825     0.001980  
   2    19   1     1     3     4  1.09       0.0855     0.002970  
   2    20   1U   12     0    12  1.09       0.0855     0.004454  
   2    20   2     1     3     4  1.09       0.0866     0.001114  
   2    21   1     0     2     2  1.09       0.0883     0.001670  
   2    22   1U    5     0     5  1.09       0.0883     0.002506  
   2    22   2     4     2     6  1.09       0.0889     0.0006264 
   2    23   1     0     3     3  1.09       0.0899     0.0009396 
   2    24   1     2     2     4  1.09       0.0913     0.001409  
   2    25   1     4     2     6  1.09       0.0934     0.002114  
   2    26   1U    4     0     4  1.09       0.0934     0.003171  
   2    26   2     0     3     3  1.09       0.0942     0.0007928 
   2    27   1     1     3     4  1.10       0.0954     0.001189  
   2    28   1     0     2     2  1.10       0.0972     0.001784  
   2    29   1     0     3     3  1.10       0.0998     0.002676  
   2    30   1     0     3     3  1.10       0.104      0.004014  
   2    31   1     0     4     4  1.11       0.110      0.006020  
   2    32   1U    5     0     5  1.11       0.110      0.009031  
   2    32   2     0     2     2  1.11       0.112      0.002258  
   2    33   1     3     2     5  1.12       0.116      0.003386  
   2    34   1U    7     0     7  1.12       0.116      0.005080  
   2    34   2     6     2     8  1.12       0.117      0.001270  
   2    35   1U    4     0     4  1.12       0.117      0.001905  
   2    35   2     4     2     6  1.12       0.117      0.0004762 
   2    36   1     0     2     2  1.12       0.118      0.0007143 
   2    37   1U    6     0     6  1.12       0.118      0.001071  
   2    37   2     1     2     3  1.12       0.118      0.0002679 
   2    38   1     0     2     2  1.12       0.119      0.0004018 
   2    39   1     2     2     4  1.12       0.119      0.0006027 
   2    40   1U    4     0     4  1.12       0.119      0.0009041 
   2    40   2     1     2     3  1.12       0.119      0.0002260 
   2    41   1     0     2     2  1.12       0.120      0.0003390 
   2    42   1     0     2     2  1.12       0.120      0.0005085 
   2    43   1     3     2     5  1.12       0.121      0.0007628 
   2    44   1     1     2     3  1.12       0.122      0.001144  
   2    45   1     8     2    10  1.12       0.124      0.001716  
   2    46   1     8     1     9  1.13       0.127      0.002574  
   2    47   1     2     2     4  1.13       0.130      0.003862  
   2    48   1U    4     0     4  1.13       0.130      0.005793  
   2    48   2     1     2     3  1.13       0.132      0.001448  
   2    49   1     0     3     3  1.13       0.134      0.002172  
   2    50   1U    6     0     6  1.13       0.134      0.003258  
   2    50   2     0     2     2  1.13       0.135      0.0008146 
   2    51   1     0     2     2  1.14       0.136      0.001222  
   2    52   1     6     2     8  1.14       0.138      0.001833  
   2    53   1     1     3     4  1.14       0.141      0.002749  
   2    54   1U    7     0     7  1.14       0.141      0.004124  
   2    54   2     2     3     5  1.14       0.142      0.001031  
   2    55   1     0     3     3  1.14       0.143      0.001546  
   2    56   1     8     1     9  1.15       0.146      0.002320  
   2    57   1U    7     0     7  1.15       0.146      0.003479  
   2    57   2     5     2     7  1.15       0.146      0.0008699 
   2    58   1     0     3     3  1.15       0.148      0.001305  
   2    59   1     2     1     3  1.15       0.150      0.001957  
   2    60   1U    6     0     6  1.15       0.150      0.002936  
   2    60   2     0     2     2  1.15       0.150      0.0007340 
   2    61   1     8     0     8  1.15       0.151      0.001101  
   2    62   1     5     1     6  1.15       0.153      0.001651  
   2    63   1    10     1    11  1.16       0.156      0.002477  
   2    64   1     9     0     9  1.16       0.159      0.003716  
   2    65   1U    8     0     8  1.16       0.159      0.005573  
   2    65   2     7     1     8  1.16       0.161      0.001393  
   2    66   1U    7     0     7  1.16       0.161      0.002090  
   2    66   2     3     2     5  1.16       0.161      0.0005225 
   2    67   1     0     2     2  1.16       0.162      0.0007838 
   2    68   1     0     2     2  1.16       0.163      0.001176  
   2    69   1     0     2     2  1.16       0.165      0.001763  
   2    70   1     8     2    10  1.17       0.168      0.002645  
   2    71   1     4     0     4  1.17       0.172      0.003968  
   2    72   1     5     0     5  1.18       0.178      0.005952  
   2    73   1     7     0     7  1.19       0.186      0.008928  
   2    74   1     5     1     6  1.20       0.200      0.01339   
   2    75   1     2     1     3  1.22       0.220      0.02009   
   2    76   1     1     1     2  1.25       0.250      0.03013   
   2    77   1     2     1     3  1.30       0.295      0.04520   
   2    78   1     1     1     2  1.36       0.363      0.06779   
   2    79   1     2     0     2  1.46       0.465      0.1017    
   2    80   1     1     1     2  1.62       0.617      0.1525    
   2    81   1     0     2     2  1.85       0.846      0.2288    
   2    82   1U    8     0     8  1.85       0.846      0.1539    
   2    82   2     0     2     2  1.88       0.885      0.03848   
   2    83   1     5     1     6  1.94       0.942      0.05772   
   2    84   1     3     1     4  2.00       1.00       0.05772   
                          
 THE ANALYSIS HAS COMPLETED SUCCESSFULLY
