1

   Abaqus 2022                                  Date 19-Dez-2023   Time 14:43:38
   For use by MONTANUNIVERSITAT LEOBEN under license from Dassault Systemes or its subsidiary.

                                                                                 
                                                                                 
 STEP    1     INCREMENT     1     STEP TIME    0.00    


                        S T E P       1     D Y N A M I C   A N A L Y S I S - I M P L I C I T  I N T E G R A T I O N


                                                                                          

          DYNAMIC APPLICATION PACKED SCHEME IS                 TRANSIENT FIDELITY  
          HILBER-HUGHES-TAYLOR (HHT) TIME INTEGRATOR IS USED

     AUTOMATIC TIME CONTROL WITH -
          A SUGGESTED INITIAL TIME INCREMENT OF                 1.00    
          AND A TOTAL TIME PERIOD OF                            1.00    
          THE MINIMUM TIME INCREMENT ALLOWED IS                1.000E-10
          THE MAXIMUM TIME INCREMENT ALLOWED IS                 1.00    
          SCALE FACTOR ON TIME AVERAGE FORCE FOR HALF-
           -INCREMENT RESIDUAL COMPUTATIONS IS                 1.000E+03

          HILBER-HUGHES-TAYLOR METHOD PARAMETERS:  ALPHA   IS  -5.000000E-02
                                                   BETA    IS   0.275625    
                                                   GAMMA   IS   0.550000    
          SINGULAR MASS TREATMENT TYPE IS                     ERROR
          CONSERVATIVE TIME INCREMENTATION IS USED
          STEP AMPLITUDE IS                                    STEP

 CONVERGENCE TOLERANCE PARAMETERS FOR FORCE    
     CRITERION FOR RESIDUAL FORCE     FOR A NONLINEAR PROBLEM          5.000E-03
     CRITERION FOR DISP.    CORRECTION IN A NONLINEAR PROBLEM          1.000E-02
     INITIAL VALUE OF TIME AVERAGE FORCE                               1.000E-02
     AVERAGE FORCE     IS TIME AVERAGE FORCE    
     ALTERNATE CRIT. FOR RESIDUAL FORCE     FOR A NONLINEAR PROBLEM    2.000E-02
     CRITERION FOR ZERO FORCE     RELATIVE TO TIME AVRG. FORCE         1.000E-05
     CRITERION FOR RESIDUAL FORCE     WHEN THERE IS ZERO FLUX          1.000E-05
     CRITERION FOR DISP.    CORRECTION WHEN THERE IS ZERO FLUX         1.000E-03
     CRITERION FOR RESIDUAL FORCE     FOR A LINEAR INCREMENT           1.000E-08
     FIELD CONVERSION RATIO                                             1.00    
     CRITERION FOR ZERO FORCE     REL. TO TIME AVRG. MAX. FORCE        1.000E-05
     CRITERION FOR ZERO DISP.    RELATIVE TO CHARACTERISTIC LENGTH     1.000E-08

 CONVERGENCE TOLERANCE PARAMETERS FOR MOMENT   
     CRITERION FOR RESIDUAL MOMENT    FOR A NONLINEAR PROBLEM          5.000E-03
     CRITERION FOR ROTATION CORRECTION IN A NONLINEAR PROBLEM          1.000E-02
     INITIAL VALUE OF TIME AVERAGE MOMENT                              1.000E-02
     AVERAGE MOMENT    IS TIME AVERAGE MOMENT   
     ALTERNATE CRIT. FOR RESIDUAL MOMENT    FOR A NONLINEAR PROBLEM    2.000E-02
     CRITERION FOR ZERO MOMENT    RELATIVE TO TIME AVRG. MOMENT        1.000E-05
     CRITERION FOR RESIDUAL MOMENT    WHEN THERE IS ZERO FLUX          1.000E-05
     CRITERION FOR ROTATION CORRECTION WHEN THERE IS ZERO FLUX         1.000E-03
     CRITERION FOR RESIDUAL MOMENT    FOR A LINEAR INCREMENT           1.000E-08
     FIELD CONVERSION RATIO                                             1.00    
     CRITERION FOR ZERO MOMENT    REL. TO TIME AVRG. MAX. MOMENT       1.000E-05

     VOLUMETRIC STRAIN COMPATIBILITY TOLERANCE FOR HYBRID SOLIDS       1.000E-05
     AXIAL STRAIN COMPATIBILITY TOLERANCE FOR HYBRID BEAMS             1.000E-05
     TRANS. SHEAR STRAIN COMPATIBILITY TOLERANCE FOR HYBRID BEAMS      1.000E-05
     SOFT CONTACT CONSTRAINT COMPATIBILITY TOLERANCE FOR P>P0          5.000E-03
     SOFT CONTACT CONSTRAINT COMPATIBILITY TOLERANCE FOR P=0.0         0.100    
     CONTACT FORCE ERROR TOLERANCE FOR CONVERT SDI=YES                 1.00    
     DISPLACEMENT COMPATIBILITY TOLERANCE FOR DCOUP ELEMENTS           1.000E-05
     ROTATION COMPATIBILITY TOLERANCE FOR DCOUP ELEMENTS               1.000E-05

 EQUILIBRIUM WILL BE CHECKED FOR SEVERE DISCONTINUITY ITERATIONS

 TIME INCREMENTATION CONTROL PARAMETERS:
     FIRST EQUILIBRIUM ITERATION FOR CONSECUTIVE DIVERGENCE CHECK              4
     EQUILIBRIUM ITERATION AT WHICH LOG. CONVERGENCE RATE CHECK BEGINS         8
     EQUILIBRIUM ITERATION AFTER WHICH ALTERNATE RESIDUAL IS USED              9
     MAXIMUM EQUILIBRIUM ITERATIONS ALLOWED                                   16
     EQUILIBRIUM ITERATION COUNT FOR CUT-BACK IN NEXT INCREMENT               10
     MAXIMUM EQUILIB. ITERS IN TWO INCREMENTS FOR TIME INCREMENT INCREASE      4
     MAXIMUM ITERATIONS FOR SEVERE DISCONTINUITIES                            50
     MAXIMUM ATTEMPTS ALLOWED IN AN INCREMENT                                  5
     MAXIMUM DISCON. ITERS IN TWO INCREMENTS FOR TIME INCREMENT INCREASE      50
     MAXIMUM CONTACT AUGMENTATIONS FOR *SURFACE BEHAVIOR,AUGMENTED LAGRANGE   50
     CONSECUTIVE INCS MEETING TIME INTEG. TOL. FOR TIME INC. INCREASE          3
     CUT-BACK FACTOR AFTER DIVERGENCE                                 0.2500    
     CUT-BACK FACTOR FOR TOO SLOW CONVERGENCE                         0.5000    
     CUT-BACK FACTOR AFTER TOO MANY EQUILIBRIUM ITERATIONS            0.7500    
     CUT-BACK FACTOR AFTER TOO MANY SEVERE DISCONTINUITY ITERATIONS   0.2500    
     CUT-BACK FACTOR AFTER PROBLEMS IN ELEMENT ASSEMBLY               0.2500    
     INCREASE FACTOR AFTER TWO INCREMENTS THAT CONVERGE QUICKLY        1.500    
     MAX. TIME INCREMENT INCREASE FACTOR ALLOWED                       1.500    
     MAX. TIME INCREMENT INCREASE FACTOR ALLOWED (DYNAMICS)            1.250    
     MAX. TIME INCREMENT INCREASE FACTOR ALLOWED (DIFFUSION)           2.000    
     MINIMUM TIME INCREMENT RATIO FOR EXTRAPOLATION TO OCCUR          0.1000    
     CUT-BACK FACTOR WHEN TIME INTEGRATION ACCURACY TOL. EXCEEDED     0.8500    
     MAX. RATIO OF TIME INTEG. MEASURE TO TOL. FOR TIME INC. INCREASE 0.7500    
     INCREASE FACTOR FOR TIME INCREMENT WHEN POSSIBLE                 0.8000    
     MIN. TIME INC. INCREASE FACTOR IN LINEAR TRANSIENT PROBLEMS      0.9500    
     MAX. RATIO OF TIME INCREMENT TO STABILITY LIMIT                   1.000    
     FRACTION OF STABILITY LIMIT FOR NEW TIME INCREMENT               0.9500    
     TIME INCREMENT INCREASE FACTOR BEFORE A TIME POINT                1.000    
     GLOBAL STABILIZATION CONTROL IS NOT USED

          PRINT OF INCREMENT NUMBER, TIME, ETC., EVERY    1  INCREMENTS

     THE MAXIMUM NUMBER OF INCREMENTS IN THIS STEP IS                   10000

          LARGE DISPLACEMENT THEORY WILL BE USED

     VELOCITY-BASED PARABOLIC EXTRAPOLATION WILL BE USED

     CHARACTERISTIC ELEMENT LENGTH      6.50    

     DETAILS REGARDING ACTUAL SOLUTION WAVEFRONT REQUESTED

     DETAILED OUTPUT OF DIAGNOSTICS TO DATABASE REQUESTED

     PRINT OF INCREMENT NUMBER, TIME, ETC., TO THE MESSAGE FILE EVERY     1  INCREMENTS

     ELEMENT OPERATIONS WILL BE CARRIED OUT IN PARALLEL USING   2 THREADS ON 1 DOMAIN

     PARALLEL CONTACT TRACKING ENABLED


     COLLECTING MODEL CONSTRAINT INFORMATION FOR OVERCONSTRAINT CHECKS

     COLLECTING STEP CONSTRAINT INFORMATION FOR OVERCONSTRAINT CHECKS
 
	REGULARIZED SYMMETRIC DIRECT SPARSE SOLVER RUNNING ON
 	1 HOST:        1 MPI RANK  x 2 THREADS
 	NUMBER OF EQUATIONS:     2772
 	NUMBER OF RHS:           1
 	NUMBER OF FLOPS:         3.172e+07

     CHECK POINT   START OF SOLVER    

     CHECK POINT  END OF SOLVER       

       ELAPSED USER TIME (SEC)      =  0.10000    
       ELAPSED SYSTEM TIME (SEC)    =   0.0000    
       ELAPSED TOTAL CPU TIME (SEC) =  0.10000    
       ELAPSED WALLCLOCK TIME (SEC) =          0
 
	REGULARIZED SYMMETRIC DIRECT SPARSE SOLVER RUNNING ON
 	1 HOST:        1 MPI RANK  x 2 THREADS
 	NUMBER OF EQUATIONS:     2772
 	NUMBER OF RHS:           1
 	NUMBER OF FLOPS:         3.172e+07

     CHECK POINT   START OF SOLVER    

     CHECK POINT  END OF SOLVER       

       ELAPSED USER TIME (SEC)      =  0.10000    
       ELAPSED SYSTEM TIME (SEC)    =   0.0000    
       ELAPSED TOTAL CPU TIME (SEC) =  0.10000    
       ELAPSED WALLCLOCK TIME (SEC) =          0


  INCREMENT     1 STARTS. ATTEMPT NUMBER  1, TIME INCREMENT   1.00    
 
     INITIAL ELEMENT LOAD BALANCE
            DOMAIN    1     THREAD    NUMBER OF ELEMENTS
                              1            200
                              2            202
 
	SYMMETRIC DIRECT SPARSE SOLVER RUNNING ON
 	1 HOST:        1 MPI RANK  x 2 THREADS
 	NUMBER OF EQUATIONS:     2772
 	NUMBER OF RHS:           1
 	NUMBER OF FLOPS:         3.172e+07

     CHECK POINT   START OF SOLVER    

     CHECK POINT  END OF SOLVER       

       ELAPSED USER TIME (SEC)      =   0.0000    
       ELAPSED SYSTEM TIME (SEC)    =   0.0000    
       ELAPSED TOTAL CPU TIME (SEC) =   0.0000    
       ELAPSED WALLCLOCK TIME (SEC) =          0

               CONVERGENCE CHECKS FOR EQUILIBRIUM ITERATION     1


 AVERAGE FORCE                       278.       TIME AVG. FORCE        278.    
 LARGEST RESIDUAL FORCE            -3.537E+03   AT NODE         22   DOF  1
   INSTANCE: PART-2-1                                                                        
 LARGEST INCREMENT OF DISP.         -80.0       AT NODE         11   DOF  3
   INSTANCE: PART-1-2                                                                        
 LARGEST CORRECTION TO DISP.        -80.0       AT NODE         11   DOF  3
   INSTANCE: PART-1-2                                                                        
          FORCE     EQUILIBRIUM NOT ACHIEVED WITHIN TOLERANCE.

 AVERAGE MOMENT                      190.       TIME AVG. MOMENT       190.    
 LARGEST RESIDUAL MOMENT           -4.104E+03   AT NODE        109   DOF  5
   INSTANCE: PART-2-1                                                                        
 LARGEST INCREMENT OF ROTATION      0.870       AT NODE        121   DOF  5
   INSTANCE: PART-2-1                                                                        
 LARGEST CORRECTION TO ROTATION     0.870       AT NODE        121   DOF  5
   INSTANCE: PART-2-1                                                                        
          MOMENT    EQUILIBRIUM NOT ACHIEVED WITHIN TOLERANCE.
 
	SYMMETRIC DIRECT SPARSE SOLVER RUNNING ON
 	1 HOST:        1 MPI RANK  x 2 THREADS
 	NUMBER OF EQUATIONS:     2772
 	NUMBER OF RHS:           1
 	NUMBER OF FLOPS:         3.172e+07

     CHECK POINT   START OF SOLVER    

     CHECK POINT  END OF SOLVER       

       ELAPSED USER TIME (SEC)      =   0.0000    
       ELAPSED SYSTEM TIME (SEC)    =   0.0000    
       ELAPSED TOTAL CPU TIME (SEC) =   0.0000    
       ELAPSED WALLCLOCK TIME (SEC) =          0
 

 ***WARNING: THE SYSTEM MATRIX HAS 305 NEGATIVE EIGENVALUES.

     NEGATIVE EIGENVALUES MEAN THAT THE SYSTEM MATRIX IS NOT 
     POSITIVE DEFINITE:
     FOR EXAMPLE, A BIFURCATION (BUCKLING) LOAD MAY HAVE BEEN EXCEEDED.

               CONVERGENCE CHECKS FOR EQUILIBRIUM ITERATION     2


 AVERAGE FORCE                       234.       TIME AVG. FORCE        234.    
 LARGEST RESIDUAL FORCE             5.113E+03   AT NODE         55   DOF  1
   INSTANCE: PART-2-1                                                                        
 LARGEST INCREMENT OF DISP.         -80.0       AT NODE         11   DOF  3
   INSTANCE: PART-1-2                                                                        
 LARGEST CORRECTION TO DISP.        -35.2       AT NODE         45   DOF  1
   INSTANCE: PART-1-3                                                                        
          FORCE     EQUILIBRIUM NOT ACHIEVED WITHIN TOLERANCE.

 AVERAGE MOMENT                      70.9       TIME AVG. MOMENT       70.9    
 LARGEST RESIDUAL MOMENT           -1.452E+03   AT NODE         58   DOF  5
   INSTANCE: PART-1-2                                                                        
 LARGEST INCREMENT OF ROTATION       1.16       AT NODE         56   DOF  5
   INSTANCE: PART-2-1                                                                        
 LARGEST CORRECTION TO ROTATION    -0.733       AT NODE         99   DOF  6
   INSTANCE: PART-1-3                                                                        
          MOMENT    EQUILIBRIUM NOT ACHIEVED WITHIN TOLERANCE.
 
	SYMMETRIC DIRECT SPARSE SOLVER RUNNING ON
 	1 HOST:        1 MPI RANK  x 2 THREADS
 	NUMBER OF EQUATIONS:     2772
 	NUMBER OF RHS:           1
 	NUMBER OF FLOPS:         3.172e+07

     CHECK POINT   START OF SOLVER    

     CHECK POINT  END OF SOLVER       

       ELAPSED USER TIME (SEC)      =   0.0000    
       ELAPSED SYSTEM TIME (SEC)    =   0.0000    
       ELAPSED TOTAL CPU TIME (SEC) =   0.0000    
       ELAPSED WALLCLOCK TIME (SEC) =          0
 

 ***WARNING: THE SYSTEM MATRIX HAS 466 NEGATIVE EIGENVALUES.
             EXPLANATIONS ARE SUGGESTED AFTER THE FIRST OCCURRENCE OF THIS MESSAGE.

               CONVERGENCE CHECKS FOR EQUILIBRIUM ITERATION     3


 AVERAGE FORCE                       183.       TIME AVG. FORCE        183.    
 LARGEST RESIDUAL FORCE             1.791E+04   AT NODE         54   DOF  3
   INSTANCE: PART-1-3                                                                        
 LARGEST INCREMENT OF DISP.         -90.0       AT NODE         10   DOF  3
   INSTANCE: PART-1-3                                                                        
 LARGEST CORRECTION TO DISP.         17.8       AT NODE         87   DOF  3
   INSTANCE: PART-1-3                                                                        
          FORCE     EQUILIBRIUM NOT ACHIEVED WITHIN TOLERANCE.

 AVERAGE MOMENT                      392.       TIME AVG. MOMENT       392.    
 LARGEST RESIDUAL MOMENT           -4.951E+04   AT NODE         53   DOF  4
   INSTANCE: PART-1-3                                                                        
 LARGEST INCREMENT OF ROTATION       4.32       AT NODE         67   DOF  5
   INSTANCE: PART-2-1                                                                        
 LARGEST CORRECTION TO ROTATION     -69.1       AT NODE         11   DOF  6
   INSTANCE: PART-1-3                                                                        
          MOMENT    EQUILIBRIUM NOT ACHIEVED WITHIN TOLERANCE.
 
	SYMMETRIC DIRECT SPARSE SOLVER RUNNING ON
 	1 HOST:        1 MPI RANK  x 2 THREADS
 	NUMBER OF EQUATIONS:     2772
 	NUMBER OF RHS:           1
 	NUMBER OF FLOPS:         3.172e+07

     CHECK POINT   START OF SOLVER    

     CHECK POINT  END OF SOLVER       

       ELAPSED USER TIME (SEC)      =  0.10000    
       ELAPSED SYSTEM TIME (SEC)    =   0.0000    
       ELAPSED TOTAL CPU TIME (SEC) =  0.10000    
       ELAPSED WALLCLOCK TIME (SEC) =          0
 

 ***WARNING: THE SYSTEM MATRIX HAS 617 NEGATIVE EIGENVALUES.
             EXPLANATIONS ARE SUGGESTED AFTER THE FIRST OCCURRENCE OF THIS MESSAGE.

               CONVERGENCE CHECKS FOR EQUILIBRIUM ITERATION     4


 AVERAGE FORCE                      4.811E+05   TIME AVG. FORCE       4.811E+05
 LARGEST RESIDUAL FORCE             1.061E+09   AT NODE         58   DOF  3
   INSTANCE: PART-2-1                                                                        
 LARGEST INCREMENT OF DISP.         -480.       AT NODE         58   DOF  3
   INSTANCE: PART-2-1                                                                        
 LARGEST CORRECTION TO DISP.        -472.       AT NODE         58   DOF  3
   INSTANCE: PART-2-1                                                                        
          FORCE     EQUILIBRIUM NOT ACHIEVED WITHIN TOLERANCE.

 AVERAGE MOMENT                     1.061E+05   TIME AVG. MOMENT      1.061E+05
 LARGEST RESIDUAL MOMENT           -2.063E+07   AT NODE         57   DOF  5
   INSTANCE: PART-2-1                                                                        
 LARGEST INCREMENT OF ROTATION      -5.60       AT NODE         63   DOF  5
   INSTANCE: PART-1-3                                                                        
 LARGEST CORRECTION TO ROTATION     -215.       AT NODE         38   DOF  6
   INSTANCE: PART-2-1                                                                        
          MOMENT    EQUILIBRIUM NOT ACHIEVED WITHIN TOLERANCE.
 

 ***NOTE: THE SOLUTION APPEARS TO BE DIVERGING. CONVERGENCE IS JUDGED UNLIKELY.


  INCREMENT     1 STARTS. ATTEMPT NUMBER  2, TIME INCREMENT  0.250    
 
	SYMMETRIC DIRECT SPARSE SOLVER RUNNING ON
 	1 HOST:        1 MPI RANK  x 2 THREADS
 	NUMBER OF EQUATIONS:     2772
 	NUMBER OF RHS:           1
 	NUMBER OF FLOPS:         3.172e+07

     CHECK POINT   START OF SOLVER    

     CHECK POINT  END OF SOLVER       

       ELAPSED USER TIME (SEC)      =   0.0000    
       ELAPSED SYSTEM TIME (SEC)    =   0.0000    
       ELAPSED TOTAL CPU TIME (SEC) =   0.0000    
       ELAPSED WALLCLOCK TIME (SEC) =          0

               CONVERGENCE CHECKS FOR EQUILIBRIUM ITERATION     1


 AVERAGE FORCE                       28.5       TIME AVG. FORCE        28.5    
 LARGEST RESIDUAL FORCE             -301.       AT NODE         22   DOF  1
   INSTANCE: PART-2-1                                                                        
 LARGEST INCREMENT OF DISP.         -20.0       AT NODE         11   DOF  3
   INSTANCE: PART-1-2                                                                        
 LARGEST CORRECTION TO DISP.        -20.0       AT NODE         11   DOF  3
   INSTANCE: PART-1-2                                                                        
          FORCE     EQUILIBRIUM NOT ACHIEVED WITHIN TOLERANCE.

 AVERAGE MOMENT                      2.44       TIME AVG. MOMENT       2.44    
 LARGEST RESIDUAL MOMENT            -53.9       AT NODE        109   DOF  5
   INSTANCE: PART-2-1                                                                        
 LARGEST INCREMENT OF ROTATION      0.218       AT NODE        121   DOF  5
   INSTANCE: PART-2-1                                                                        
 LARGEST CORRECTION TO ROTATION     0.218       AT NODE        121   DOF  5
   INSTANCE: PART-2-1                                                                        
          MOMENT    EQUILIBRIUM NOT ACHIEVED WITHIN TOLERANCE.
 
	SYMMETRIC DIRECT SPARSE SOLVER RUNNING ON
 	1 HOST:        1 MPI RANK  x 2 THREADS
 	NUMBER OF EQUATIONS:     2772
 	NUMBER OF RHS:           1
 	NUMBER OF FLOPS:         3.172e+07

     CHECK POINT   START OF SOLVER    

     CHECK POINT  END OF SOLVER       

       ELAPSED USER TIME (SEC)      =   0.0000    
       ELAPSED SYSTEM TIME (SEC)    =   0.0000    
       ELAPSED TOTAL CPU TIME (SEC) =   0.0000    
       ELAPSED WALLCLOCK TIME (SEC) =          0

               CONVERGENCE CHECKS FOR EQUILIBRIUM ITERATION     2


 AVERAGE FORCE                      0.465       TIME AVG. FORCE       0.465    
 LARGEST RESIDUAL FORCE              7.39       AT NODE         55   DOF  1
   INSTANCE: PART-2-1                                                                        
 LARGEST INCREMENT OF DISP.         -20.0       AT NODE         11   DOF  3
   INSTANCE: PART-1-2                                                                        
 LARGEST CORRECTION TO DISP.        -1.85       AT NODE         12   DOF  1
   INSTANCE: PART-1-3                                                                        
          FORCE     EQUILIBRIUM NOT ACHIEVED WITHIN TOLERANCE.

 AVERAGE MOMENT                     0.360       TIME AVG. MOMENT      0.360    
 LARGEST RESIDUAL MOMENT            -7.95       AT NODE         76   DOF  5
   INSTANCE: PART-2-1                                                                        
 LARGEST INCREMENT OF ROTATION      0.199       AT NODE        110   DOF  5
   INSTANCE: PART-2-1                                                                        
 LARGEST CORRECTION TO ROTATION    -1.831E-02   AT NODE        100   DOF  5
   INSTANCE: PART-2-1                                                                        
          MOMENT    EQUILIBRIUM NOT ACHIEVED WITHIN TOLERANCE.
 
	SYMMETRIC DIRECT SPARSE SOLVER RUNNING ON
 	1 HOST:        1 MPI RANK  x 2 THREADS
 	NUMBER OF EQUATIONS:     2772
 	NUMBER OF RHS:           1
 	NUMBER OF FLOPS:         3.172e+07

     CHECK POINT   START OF SOLVER    

     CHECK POINT  END OF SOLVER       

       ELAPSED USER TIME (SEC)      =  0.10000    
       ELAPSED SYSTEM TIME (SEC)    =   0.0000    
       ELAPSED TOTAL CPU TIME (SEC) =  0.10000    
       ELAPSED WALLCLOCK TIME (SEC) =          0
 

 ***WARNING: THE SYSTEM MATRIX HAS 16 NEGATIVE EIGENVALUES.
             EXPLANATIONS ARE SUGGESTED AFTER THE FIRST OCCURRENCE OF THIS MESSAGE.

               CONVERGENCE CHECKS FOR EQUILIBRIUM ITERATION     3


 AVERAGE FORCE                      2.430E-04   TIME AVG. FORCE       2.430E-04
 LARGEST RESIDUAL FORCE            -1.808E-03   AT NODE        100   DOF  1
   INSTANCE: PART-1-1                                                                        
 LARGEST INCREMENT OF DISP.         -20.0       AT NODE         11   DOF  3
   INSTANCE: PART-1-2                                                                        
 LARGEST CORRECTION TO DISP.        3.677E-02   AT NODE         22   DOF  1
   INSTANCE: PART-2-1                                                                        
          FORCE     EQUILIBRIUM NOT ACHIEVED WITHIN TOLERANCE.

 AVERAGE MOMENT                     2.665E-04   TIME AVG. MOMENT      2.665E-04
 LARGEST RESIDUAL MOMENT            5.310E-03   AT NODE        108   DOF  5
   INSTANCE: PART-1-2                                                                        
 LARGEST INCREMENT OF ROTATION      0.199       AT NODE         77   DOF  5
   INSTANCE: PART-2-1                                                                        
 LARGEST CORRECTION TO ROTATION    -2.823E-04   AT NODE         67   DOF  5
   INSTANCE: PART-2-1                                                                        
          MOMENT    EQUILIBRIUM NOT ACHIEVED WITHIN TOLERANCE.
 
	SYMMETRIC DIRECT SPARSE SOLVER RUNNING ON
 	1 HOST:        1 MPI RANK  x 2 THREADS
 	NUMBER OF EQUATIONS:     2772
 	NUMBER OF RHS:           1
 	NUMBER OF FLOPS:         3.172e+07

     CHECK POINT   START OF SOLVER    

     CHECK POINT  END OF SOLVER       

       ELAPSED USER TIME (SEC)      =  0.10000    
       ELAPSED SYSTEM TIME (SEC)    =   0.0000    
       ELAPSED TOTAL CPU TIME (SEC) =  0.10000    
       ELAPSED WALLCLOCK TIME (SEC) =          0

               CONVERGENCE CHECKS FOR EQUILIBRIUM ITERATION     4


 AVERAGE FORCE                      1.500E-05   TIME AVG. FORCE       1.500E-05
 LARGEST RESIDUAL FORCE             7.182E-06   AT NODE          8   DOF  2
   INSTANCE: PART-1-1                                                                        
 LARGEST INCREMENT OF DISP.         -20.0       AT NODE         11   DOF  3
   INSTANCE: PART-1-2                                                                        
 LARGEST CORRECTION TO DISP.       -6.293E-04   AT NODE         62   DOF  3
   INSTANCE: PART-1-1                                                                        
          FORCE     EQUILIBRIUM NOT ACHIEVED WITHIN TOLERANCE.

 AVERAGE MOMENT                     5.995E-05   TIME AVG. MOMENT      5.995E-05
 LARGEST RESIDUAL MOMENT           -1.946E-07   AT NODE        106   DOF  5
   INSTANCE: PART-1-1                                                                        
 LARGEST INCREMENT OF ROTATION     -0.199       AT NODE         11   DOF  5
   INSTANCE: PART-1-3                                                                        
 LARGEST CORRECTION TO ROTATION     4.741E-05   AT NODE         67   DOF  5
   INSTANCE: PART-2-1                                                                        
          THE MOMENT    EQUILIBRIUM EQUATIONS HAVE CONVERGED
 
	SYMMETRIC DIRECT SPARSE SOLVER RUNNING ON
 	1 HOST:        1 MPI RANK  x 2 THREADS
 	NUMBER OF EQUATIONS:     2772
 	NUMBER OF RHS:           1
 	NUMBER OF FLOPS:         3.172e+07

     CHECK POINT   START OF SOLVER    

     CHECK POINT  END OF SOLVER       

       ELAPSED USER TIME (SEC)      =  0.10000    
       ELAPSED SYSTEM TIME (SEC)    =   0.0000    
       ELAPSED TOTAL CPU TIME (SEC) =  0.10000    
       ELAPSED WALLCLOCK TIME (SEC) =          0

               CONVERGENCE CHECKS FOR EQUILIBRIUM ITERATION     5


 AVERAGE FORCE                      1.492E-05   TIME AVG. FORCE       1.492E-05
 LARGEST RESIDUAL FORCE            -4.646E-11   AT NODE         33   DOF  1
   INSTANCE: PART-2-1                                                                        
 LARGEST INCREMENT OF DISP.         -20.0       AT NODE         11   DOF  3
   INSTANCE: PART-1-2                                                                        
 LARGEST CORRECTION TO DISP.       -1.402E-06   AT NODE        116   DOF  3
   INSTANCE: PART-1-2                                                                        
          THE FORCE     EQUILIBRIUM EQUATIONS HAVE CONVERGED

 AVERAGE MOMENT                     5.994E-05   TIME AVG. MOMENT      5.994E-05
 LARGEST RESIDUAL MOMENT           -1.213E-11   AT NODE         42   DOF  5
   INSTANCE: PART-1-2                                                                        
 LARGEST INCREMENT OF ROTATION     -0.199       AT NODE        121   DOF  5
   INSTANCE: PART-1-3                                                                        
 LARGEST CORRECTION TO ROTATION    -8.325E-08   AT NODE          1   DOF  5
   INSTANCE: PART-1-3                                                                        
          THE MOMENT    EQUILIBRIUM EQUATIONS HAVE CONVERGED

  MAXIMUM HALF-INCREMENT FORCE RESIDUAL IS   -26.0     AND OCCURS AT NODE         56 INSTANCE PART-1-1                                                                        
  MAXIMUM HALF-INCREMENT MOMENT RESIDUAL IS   -1.71     AND OCCURS AT NODE         57 INSTANCE PART-2-1                                                                        
 

 ***NOTE: THE TIME INTEGRATION ACCURACY TOLERANCE HAS BEEN EXCEEDED.


  INCREMENT     1 STARTS. ATTEMPT NUMBER  3, TIME INCREMENT  1.221E-04
 
	SYMMETRIC DIRECT SPARSE SOLVER RUNNING ON
 	1 HOST:        1 MPI RANK  x 2 THREADS
 	NUMBER OF EQUATIONS:     2772
 	NUMBER OF RHS:           1
 	NUMBER OF FLOPS:         3.172e+07

     CHECK POINT   START OF SOLVER    

     CHECK POINT  END OF SOLVER       

       ELAPSED USER TIME (SEC)      =  0.10000    
       ELAPSED SYSTEM TIME (SEC)    =   0.0000    
       ELAPSED TOTAL CPU TIME (SEC) =  0.10000    
       ELAPSED WALLCLOCK TIME (SEC) =          0

               CONVERGENCE CHECKS FOR EQUILIBRIUM ITERATION     1


 AVERAGE FORCE                      1.127E-02   TIME AVG. FORCE       1.127E-02
 LARGEST RESIDUAL FORCE             1.638E-03   AT NODE         54   DOF  3
   INSTANCE: PART-1-3                                                                        
 LARGEST INCREMENT OF DISP.        -9.768E-03   AT NODE         11   DOF  3
   INSTANCE: PART-1-2                                                                        
 LARGEST CORRECTION TO DISP.       -9.768E-03   AT NODE         11   DOF  3
   INSTANCE: PART-1-2                                                                        
          FORCE     EQUILIBRIUM NOT ACHIEVED WITHIN TOLERANCE.

 AVERAGE MOMENT                     5.024E-04   TIME AVG. MOMENT      5.024E-04
 LARGEST RESIDUAL MOMENT            3.368E-04   AT NODE         65   DOF  5
   INSTANCE: PART-1-2                                                                        
 LARGEST INCREMENT OF ROTATION      1.054E-03   AT NODE         11   DOF  5
   INSTANCE: PART-1-2                                                                        
 LARGEST CORRECTION TO ROTATION     1.054E-03   AT NODE         11   DOF  5
   INSTANCE: PART-1-2                                                                        
          MOMENT    EQUILIBRIUM NOT ACHIEVED WITHIN TOLERANCE.
 
	SYMMETRIC DIRECT SPARSE SOLVER RUNNING ON
 	1 HOST:        1 MPI RANK  x 2 THREADS
 	NUMBER OF EQUATIONS:     2772
 	NUMBER OF RHS:           1
 	NUMBER OF FLOPS:         3.172e+07

     CHECK POINT   START OF SOLVER    

     CHECK POINT  END OF SOLVER       

       ELAPSED USER TIME (SEC)      =  0.10000    
       ELAPSED SYSTEM TIME (SEC)    =   0.0000    
       ELAPSED TOTAL CPU TIME (SEC) =  0.10000    
       ELAPSED WALLCLOCK TIME (SEC) =          0

               CONVERGENCE CHECKS FOR EQUILIBRIUM ITERATION     2


 AVERAGE FORCE                      1.125E-02   TIME AVG. FORCE       1.125E-02
 LARGEST RESIDUAL FORCE             3.016E-08   AT NODE         65   DOF  3
   INSTANCE: PART-1-3                                                                        
 LARGEST INCREMENT OF DISP.        -9.768E-03   AT NODE         11   DOF  3
   INSTANCE: PART-1-2                                                                        
 LARGEST CORRECTION TO DISP.        1.582E-05   AT NODE        120   DOF  3
   INSTANCE: PART-1-3                                                                        
          THE FORCE     EQUILIBRIUM EQUATIONS HAVE CONVERGED

 AVERAGE MOMENT                     4.936E-04   TIME AVG. MOMENT      4.936E-04
 LARGEST RESIDUAL MOMENT            2.326E-08   AT NODE         21   DOF  5
   INSTANCE: PART-1-2                                                                        
 LARGEST INCREMENT OF ROTATION      1.058E-03   AT NODE        121   DOF  5
   INSTANCE: PART-1-2                                                                        
 LARGEST CORRECTION TO ROTATION    -4.625E-06   AT NODE        121   DOF  5
   INSTANCE: PART-1-3                                                                        
          THE MOMENT    EQUILIBRIUM EQUATIONS HAVE CONVERGED

  MAXIMUM HALF-INCREMENT FORCE RESIDUAL IS   1.079E-02 AND OCCURS AT NODE         21 INSTANCE PART-1-2                                                                        
  MAXIMUM HALF-INCREMENT MOMENT RESIDUAL IS  -7.002E-05 AND OCCURS AT NODE         65 INSTANCE PART-1-2                                                                        

 ITERATION SUMMARY FOR THE INCREMENT:   2 TOTAL ITERATIONS, OF WHICH
   0 ARE SEVERE DISCONTINUITY ITERATIONS AND  2 ARE EQUILIBRIUM ITERATIONS.

 TIME INCREMENT COMPLETED  1.221E-04,  FRACTION OF STEP COMPLETED  1.221E-04
 STEP TIME COMPLETED       1.221E-04,  TOTAL TIME COMPLETED        1.221E-04


  INCREMENT     2 STARTS. ATTEMPT NUMBER  1, TIME INCREMENT  1.221E-04
 
	SYMMETRIC DIRECT SPARSE SOLVER RUNNING ON
 	1 HOST:        1 MPI RANK  x 2 THREADS
 	NUMBER OF EQUATIONS:     2772
 	NUMBER OF RHS:           1
 	NUMBER OF FLOPS:         3.172e+07

     CHECK POINT   START OF SOLVER    

     CHECK POINT  END OF SOLVER       

       ELAPSED USER TIME (SEC)      =  0.10000    
       ELAPSED SYSTEM TIME (SEC)    =   0.0000    
       ELAPSED TOTAL CPU TIME (SEC) =  0.10000    
       ELAPSED WALLCLOCK TIME (SEC) =          0

               CONVERGENCE CHECKS FOR EQUILIBRIUM ITERATION     1


 AVERAGE FORCE                      1.408E-02   TIME AVG. FORCE       1.267E-02
 LARGEST RESIDUAL FORCE            -9.009E-03   AT NODE         21   DOF  1
   INSTANCE: PART-1-2                                                                        
 LARGEST INCREMENT OF DISP.        -9.768E-03   AT NODE         11   DOF  3
   INSTANCE: PART-1-2                                                                        
 LARGEST CORRECTION TO DISP.        1.008E-02   AT NODE        109   DOF  3
   INSTANCE: PART-1-2                                                                        
          FORCE     EQUILIBRIUM NOT ACHIEVED WITHIN TOLERANCE.

 AVERAGE MOMENT                     1.451E-03   TIME AVG. MOMENT      9.721E-04
 LARGEST RESIDUAL MOMENT            5.796E-02   AT NODE        110   DOF  5
   INSTANCE: PART-1-3                                                                        
 LARGEST INCREMENT OF ROTATION      9.035E-04   AT NODE        121   DOF  5
   INSTANCE: PART-2-1                                                                        
 LARGEST CORRECTION TO ROTATION    -2.582E-03   AT NODE        121   DOF  5
   INSTANCE: PART-1-2                                                                        
          MOMENT    EQUILIBRIUM NOT ACHIEVED WITHIN TOLERANCE.
 
	SYMMETRIC DIRECT SPARSE SOLVER RUNNING ON
 	1 HOST:        1 MPI RANK  x 2 THREADS
 	NUMBER OF EQUATIONS:     2772
 	NUMBER OF RHS:           1
 	NUMBER OF FLOPS:         3.172e+07

     CHECK POINT   START OF SOLVER    

     CHECK POINT  END OF SOLVER       

       ELAPSED USER TIME (SEC)      =   0.0000    
       ELAPSED SYSTEM TIME (SEC)    =  0.10000    
       ELAPSED TOTAL CPU TIME (SEC) =  0.10000    
       ELAPSED WALLCLOCK TIME (SEC) =          0

               CONVERGENCE CHECKS FOR EQUILIBRIUM ITERATION     2


 AVERAGE FORCE                      1.413E-02   TIME AVG. FORCE       1.269E-02
 LARGEST RESIDUAL FORCE             4.873E-05   AT NODE         54   DOF  3
   INSTANCE: PART-1-3                                                                        
 LARGEST INCREMENT OF DISP.        -9.768E-03   AT NODE         11   DOF  3
   INSTANCE: PART-1-2                                                                        
 LARGEST CORRECTION TO DISP.       -6.721E-04   AT NODE        120   DOF  3
   INSTANCE: PART-1-2                                                                        
 ESTIMATE OF DISP.    CORRECTION    3.635E-06
 FORCE     EQUILIB. ACCEPTED BASED ON SMALL RESIDUAL AND ESTIMATED CORRECTION

 AVERAGE MOMENT                     1.173E-03   TIME AVG. MOMENT      8.331E-04
 LARGEST RESIDUAL MOMENT           -5.230E-07   AT NODE         10   DOF  4
   INSTANCE: PART-1-2                                                                        
 LARGEST INCREMENT OF ROTATION      9.040E-04   AT NODE        121   DOF  5
   INSTANCE: PART-2-1                                                                        
 LARGEST CORRECTION TO ROTATION    -2.672E-04   AT NODE         11   DOF  5
   INSTANCE: PART-1-2                                                                        
 ESTIMATE OF ROTATION CORRECTION    2.411E-09
 MOMENT    EQUILIB. ACCEPTED BASED ON SMALL RESIDUAL AND ESTIMATED CORRECTION

  MAXIMUM HALF-INCREMENT FORCE RESIDUAL IS    4.68     AND OCCURS AT NODE         54 INSTANCE PART-1-2                                                                        
  MAXIMUM HALF-INCREMENT MOMENT RESIDUAL IS   -4.92     AND OCCURS AT NODE         22 INSTANCE PART-1-2                                                                        
 

 ***NOTE: THE TIME INTEGRATION ACCURACY TOLERANCE HAS BEEN EXCEEDED.


  INCREMENT     2 STARTS. ATTEMPT NUMBER  2, TIME INCREMENT  1.758E-05
 
	SYMMETRIC DIRECT SPARSE SOLVER RUNNING ON
 	1 HOST:        1 MPI RANK  x 2 THREADS
 	NUMBER OF EQUATIONS:     2772
 	NUMBER OF RHS:           1
 	NUMBER OF FLOPS:         3.172e+07

     CHECK POINT   START OF SOLVER    

     CHECK POINT  END OF SOLVER       

       ELAPSED USER TIME (SEC)      =  0.10000    
       ELAPSED SYSTEM TIME (SEC)    =   0.0000    
       ELAPSED TOTAL CPU TIME (SEC) =  0.10000    
       ELAPSED WALLCLOCK TIME (SEC) =          0

               CONVERGENCE CHECKS FOR EQUILIBRIUM ITERATION     1


 AVERAGE FORCE                      9.705E-03   TIME AVG. FORCE       1.048E-02
 LARGEST RESIDUAL FORCE             8.715E-05   AT NODE         76   DOF  3
   INSTANCE: PART-1-3                                                                        
 LARGEST INCREMENT OF DISP.        -1.407E-03   AT NODE         11   DOF  3
   INSTANCE: PART-1-2                                                                        
 LARGEST CORRECTION TO DISP.        4.218E-04   AT NODE         10   DOF  1
   INSTANCE: PART-1-2                                                                        
          FORCE     EQUILIBRIUM NOT ACHIEVED WITHIN TOLERANCE.

 AVERAGE MOMENT                     8.499E-04   TIME AVG. MOMENT      6.718E-04
 LARGEST RESIDUAL MOMENT           -1.982E-04   AT NODE         66   DOF  5
   INSTANCE: PART-1-2                                                                        
 LARGEST INCREMENT OF ROTATION      2.773E-04   AT NODE        121   DOF  5
   INSTANCE: PART-2-1                                                                        
 LARGEST CORRECTION TO ROTATION     2.772E-04   AT NODE         99   DOF  5
   INSTANCE: PART-1-3                                                                        
          MOMENT    EQUILIBRIUM NOT ACHIEVED WITHIN TOLERANCE.
 
	SYMMETRIC DIRECT SPARSE SOLVER RUNNING ON
 	1 HOST:        1 MPI RANK  x 2 THREADS
 	NUMBER OF EQUATIONS:     2772
 	NUMBER OF RHS:           1
 	NUMBER OF FLOPS:         3.172e+07

     CHECK POINT   START OF SOLVER    

     CHECK POINT  END OF SOLVER       

       ELAPSED USER TIME (SEC)      =  0.10000    
       ELAPSED SYSTEM TIME (SEC)    =   0.0000    
       ELAPSED TOTAL CPU TIME (SEC) =  0.10000    
       ELAPSED WALLCLOCK TIME (SEC) =          0

               CONVERGENCE CHECKS FOR EQUILIBRIUM ITERATION     2


 AVERAGE FORCE                      9.705E-03   TIME AVG. FORCE       1.048E-02
 LARGEST RESIDUAL FORCE            -8.165E-11   AT NODE         11   DOF  2
   INSTANCE: PART-1-2                                                                        
 LARGEST INCREMENT OF DISP.        -1.407E-03   AT NODE         11   DOF  3
   INSTANCE: PART-1-2                                                                        
 LARGEST CORRECTION TO DISP.        9.840E-08   AT NODE         21   DOF  1
   INSTANCE: PART-1-2                                                                        
          THE FORCE     EQUILIBRIUM EQUATIONS HAVE CONVERGED

 AVERAGE MOMENT                     8.500E-04   TIME AVG. MOMENT      6.718E-04
 LARGEST RESIDUAL MOMENT            2.512E-10   AT NODE         76   DOF  5
   INSTANCE: PART-1-2                                                                        
 LARGEST INCREMENT OF ROTATION      2.773E-04   AT NODE         11   DOF  5
   INSTANCE: PART-2-1                                                                        
 LARGEST CORRECTION TO ROTATION    -1.014E-07   AT NODE         11   DOF  5
   INSTANCE: PART-1-2                                                                        
          THE MOMENT    EQUILIBRIUM EQUATIONS HAVE CONVERGED

  MAXIMUM HALF-INCREMENT FORCE RESIDUAL IS   0.407     AND OCCURS AT NODE         32 INSTANCE PART-1-2                                                                        
  MAXIMUM HALF-INCREMENT MOMENT RESIDUAL IS  -0.478     AND OCCURS AT NODE        109 INSTANCE PART-1-2                                                                        

 ITERATION SUMMARY FOR THE INCREMENT:   2 TOTAL ITERATIONS, OF WHICH
   0 ARE SEVERE DISCONTINUITY ITERATIONS AND  2 ARE EQUILIBRIUM ITERATIONS.

 TIME INCREMENT COMPLETED  1.758E-05,  FRACTION OF STEP COMPLETED  1.397E-04
 STEP TIME COMPLETED       1.397E-04,  TOTAL TIME COMPLETED        1.397E-04


  INCREMENT     3 STARTS. ATTEMPT NUMBER  1, TIME INCREMENT  1.758E-05
 
	SYMMETRIC DIRECT SPARSE SOLVER RUNNING ON
 	1 HOST:        1 MPI RANK  x 2 THREADS
 	NUMBER OF EQUATIONS:     2772
 	NUMBER OF RHS:           1
 	NUMBER OF FLOPS:         3.172e+07

     CHECK POINT   START OF SOLVER    

     CHECK POINT  END OF SOLVER       

       ELAPSED USER TIME (SEC)      =  0.10000    
       ELAPSED SYSTEM TIME (SEC)    =   0.0000    
       ELAPSED TOTAL CPU TIME (SEC) =  0.10000    
       ELAPSED WALLCLOCK TIME (SEC) =          0

               CONVERGENCE CHECKS FOR EQUILIBRIUM ITERATION     1


 AVERAGE FORCE                      8.086E-03   TIME AVG. FORCE       9.681E-03
 LARGEST RESIDUAL FORCE             1.985E-04   AT NODE        109   DOF  3
   INSTANCE: PART-1-2                                                                        
 LARGEST INCREMENT OF DISP.        -1.534E-03   AT NODE        100   DOF  3
   INSTANCE: PART-1-1                                                                        
 LARGEST CORRECTION TO DISP.       -4.599E-04   AT NODE        120   DOF  1
   INSTANCE: PART-1-2                                                                        
          FORCE     EQUILIBRIUM NOT ACHIEVED WITHIN TOLERANCE.

 AVERAGE MOMENT                     9.535E-04   TIME AVG. MOMENT      7.657E-04
 LARGEST RESIDUAL MOMENT           -4.489E-04   AT NODE         65   DOF  5
   INSTANCE: PART-1-2                                                                        
 LARGEST INCREMENT OF ROTATION      3.056E-04   AT NODE        121   DOF  5
   INSTANCE: PART-2-1                                                                        
 LARGEST CORRECTION TO ROTATION     5.640E-04   AT NODE         22   DOF  5
   INSTANCE: PART-1-2                                                                        
          MOMENT    EQUILIBRIUM NOT ACHIEVED WITHIN TOLERANCE.
 
	SYMMETRIC DIRECT SPARSE SOLVER RUNNING ON
 	1 HOST:        1 MPI RANK  x 2 THREADS
 	NUMBER OF EQUATIONS:     2772
 	NUMBER OF RHS:           1
 	NUMBER OF FLOPS:         3.172e+07

     CHECK POINT   START OF SOLVER    

     CHECK POINT  END OF SOLVER       

       ELAPSED USER TIME (SEC)      =   0.0000    
       ELAPSED SYSTEM TIME (SEC)    =   0.0000    
       ELAPSED TOTAL CPU TIME (SEC) =   0.0000    
       ELAPSED WALLCLOCK TIME (SEC) =          0

               CONVERGENCE CHECKS FOR EQUILIBRIUM ITERATION     2


 AVERAGE FORCE                      8.087E-03   TIME AVG. FORCE       9.681E-03
 LARGEST RESIDUAL FORCE            -1.393E-10   AT NODE        109   DOF  3
   INSTANCE: PART-1-2                                                                        
 LARGEST INCREMENT OF DISP.        -1.534E-03   AT NODE        100   DOF  3
   INSTANCE: PART-1-1                                                                        
 LARGEST CORRECTION TO DISP.        2.615E-07   AT NODE        109   DOF  1
   INSTANCE: PART-1-2                                                                        
          THE FORCE     EQUILIBRIUM EQUATIONS HAVE CONVERGED

 AVERAGE MOMENT                     9.557E-04   TIME AVG. MOMENT      7.665E-04
 LARGEST RESIDUAL MOMENT           -5.011E-10   AT NODE        109   DOF  5
   INSTANCE: PART-1-3                                                                        
 LARGEST INCREMENT OF ROTATION      3.056E-04   AT NODE        121   DOF  5
   INSTANCE: PART-2-1                                                                        
 LARGEST CORRECTION TO ROTATION    -1.991E-07   AT NODE         66   DOF  5
   INSTANCE: PART-1-2                                                                        
          THE MOMENT    EQUILIBRIUM EQUATIONS HAVE CONVERGED

  MAXIMUM HALF-INCREMENT FORCE RESIDUAL IS  -0.490     AND OCCURS AT NODE        109 INSTANCE PART-1-2                                                                        
  MAXIMUM HALF-INCREMENT MOMENT RESIDUAL IS   0.734     AND OCCURS AT NODE        109 INSTANCE PART-1-2                                                                        

 ITERATION SUMMARY FOR THE INCREMENT:   2 TOTAL ITERATIONS, OF WHICH
   0 ARE SEVERE DISCONTINUITY ITERATIONS AND  2 ARE EQUILIBRIUM ITERATIONS.

 TIME INCREMENT COMPLETED  1.758E-05,  FRACTION OF STEP COMPLETED  1.573E-04
 STEP TIME COMPLETED       1.573E-04,  TOTAL TIME COMPLETED        1.573E-04


  INCREMENT     4 STARTS. ATTEMPT NUMBER  1, TIME INCREMENT  1.758E-05
 
	SYMMETRIC DIRECT SPARSE SOLVER RUNNING ON
 	1 HOST:        1 MPI RANK  x 2 THREADS
 	NUMBER OF EQUATIONS:     2772
 	NUMBER OF RHS:           1
 	NUMBER OF FLOPS:         3.172e+07

     CHECK POINT   START OF SOLVER    

     CHECK POINT  END OF SOLVER       

       ELAPSED USER TIME (SEC)      =   0.0000    
       ELAPSED SYSTEM TIME (SEC)    =   0.0000    
       ELAPSED TOTAL CPU TIME (SEC) =   0.0000    
       ELAPSED WALLCLOCK TIME (SEC) =          0

               CONVERGENCE CHECKS FOR EQUILIBRIUM ITERATION     1


 AVERAGE FORCE                      1.527E-02   TIME AVG. FORCE       1.108E-02
 LARGEST RESIDUAL FORCE            -1.604E-04   AT NODE        109   DOF  1
   INSTANCE: PART-1-3                                                                        
 LARGEST INCREMENT OF DISP.        -1.480E-03   AT NODE          2   DOF  3
   INSTANCE: {assembly node}                                                                 
 LARGEST CORRECTION TO DISP.       -4.441E-04   AT NODE        119   DOF  3
   INSTANCE: PART-1-2                                                                        
          FORCE     EQUILIBRIUM NOT ACHIEVED WITHIN TOLERANCE.

 AVERAGE MOMENT                     1.020E-03   TIME AVG. MOMENT      8.298E-04
 LARGEST RESIDUAL MOMENT            8.634E-05   AT NODE         21   DOF  5
   INSTANCE: PART-1-2                                                                        
 LARGEST INCREMENT OF ROTATION      2.129E-04   AT NODE         66   DOF  5
   INSTANCE: PART-2-1                                                                        
 LARGEST CORRECTION TO ROTATION     5.465E-04   AT NODE         88   DOF  5
   INSTANCE: PART-1-3                                                                        
          MOMENT    EQUILIBRIUM NOT ACHIEVED WITHIN TOLERANCE.
 
	SYMMETRIC DIRECT SPARSE SOLVER RUNNING ON
 	1 HOST:        1 MPI RANK  x 2 THREADS
 	NUMBER OF EQUATIONS:     2772
 	NUMBER OF RHS:           1
 	NUMBER OF FLOPS:         3.172e+07

     CHECK POINT   START OF SOLVER    

     CHECK POINT  END OF SOLVER       

       ELAPSED USER TIME (SEC)      =   0.0000    
       ELAPSED SYSTEM TIME (SEC)    =   0.0000    
       ELAPSED TOTAL CPU TIME (SEC) =   0.0000    
       ELAPSED WALLCLOCK TIME (SEC) =          0

               CONVERGENCE CHECKS FOR EQUILIBRIUM ITERATION     2


 AVERAGE FORCE                      1.527E-02   TIME AVG. FORCE       1.108E-02
 LARGEST RESIDUAL FORCE            -1.038E-10   AT NODE        120   DOF  2
   INSTANCE: PART-1-2                                                                        
 LARGEST INCREMENT OF DISP.        -1.480E-03   AT NODE          2   DOF  3
   INSTANCE: {assembly node}                                                                 
 LARGEST CORRECTION TO DISP.        1.367E-07   AT NODE        120   DOF  3
   INSTANCE: PART-1-3                                                                        
          THE FORCE     EQUILIBRIUM EQUATIONS HAVE CONVERGED

 AVERAGE MOMENT                     1.020E-03   TIME AVG. MOMENT      8.298E-04
 LARGEST RESIDUAL MOMENT            5.043E-10   AT NODE         65   DOF  5
   INSTANCE: PART-1-2                                                                        
 LARGEST INCREMENT OF ROTATION      2.129E-04   AT NODE         66   DOF  5
   INSTANCE: PART-2-1                                                                        
 LARGEST CORRECTION TO ROTATION     6.433E-08   AT NODE        121   DOF  4
   INSTANCE: PART-1-2                                                                        
          THE MOMENT    EQUILIBRIUM EQUATIONS HAVE CONVERGED

  MAXIMUM HALF-INCREMENT FORCE RESIDUAL IS   0.441     AND OCCURS AT NODE         21 INSTANCE PART-1-2                                                                        
  MAXIMUM HALF-INCREMENT MOMENT RESIDUAL IS  -0.936     AND OCCURS AT NODE         65 INSTANCE PART-1-2                                                                        
 

 ***NOTE: THE TIME INTEGRATION ACCURACY TOLERANCE HAS BEEN EXCEEDED.


  INCREMENT     4 STARTS. ATTEMPT NUMBER  2, TIME INCREMENT  1.324E-05
 
	SYMMETRIC DIRECT SPARSE SOLVER RUNNING ON
 	1 HOST:        1 MPI RANK  x 2 THREADS
 	NUMBER OF EQUATIONS:     2772
 	NUMBER OF RHS:           1
 	NUMBER OF FLOPS:         3.172e+07

     CHECK POINT   START OF SOLVER    

     CHECK POINT  END OF SOLVER       

       ELAPSED USER TIME (SEC)      =   0.0000    
       ELAPSED SYSTEM TIME (SEC)    =   0.0000    
       ELAPSED TOTAL CPU TIME (SEC) =   0.0000    
       ELAPSED WALLCLOCK TIME (SEC) =          1

               CONVERGENCE CHECKS FOR EQUILIBRIUM ITERATION     1


 AVERAGE FORCE                      1.399E-02   TIME AVG. FORCE       1.076E-02
 LARGEST RESIDUAL FORCE             2.049E-05   AT NODE         32   DOF  1
   INSTANCE: PART-1-2                                                                        
 LARGEST INCREMENT OF DISP.        -1.162E-03   AT NODE          2   DOF  3
   INSTANCE: {assembly node}                                                                 
 LARGEST CORRECTION TO DISP.       -1.798E-04   AT NODE        119   DOF  3
   INSTANCE: PART-1-3                                                                        
 ESTIMATE OF DISP.    CORRECTION    1.371E-08
 FORCE     EQUILIB. ACCEPTED BASED ON SMALL RESIDUAL AND ESTIMATED CORRECTION

 AVERAGE MOMENT                     1.014E-03   TIME AVG. MOMENT      8.282E-04
 LARGEST RESIDUAL MOMENT            3.526E-05   AT NODE         65   DOF  5
   INSTANCE: PART-1-2                                                                        
 LARGEST INCREMENT OF ROTATION      1.807E-04   AT NODE         66   DOF  5
   INSTANCE: PART-2-1                                                                        
 LARGEST CORRECTION TO ROTATION    -1.962E-04   AT NODE         11   DOF  5
   INSTANCE: PART-1-2                                                                        
          MOMENT    EQUILIBRIUM NOT ACHIEVED WITHIN TOLERANCE.
 
	SYMMETRIC DIRECT SPARSE SOLVER RUNNING ON
 	1 HOST:        1 MPI RANK  x 2 THREADS
 	NUMBER OF EQUATIONS:     2772
 	NUMBER OF RHS:           1
 	NUMBER OF FLOPS:         3.172e+07

     CHECK POINT   START OF SOLVER    

     CHECK POINT  END OF SOLVER       

       ELAPSED USER TIME (SEC)      =   0.0000    
       ELAPSED SYSTEM TIME (SEC)    =   0.0000    
       ELAPSED TOTAL CPU TIME (SEC) =   0.0000    
       ELAPSED WALLCLOCK TIME (SEC) =          0

               CONVERGENCE CHECKS FOR EQUILIBRIUM ITERATION     2


 AVERAGE FORCE                      1.399E-02   TIME AVG. FORCE       1.076E-02
 LARGEST RESIDUAL FORCE            -3.652E-11   AT NODE         65   DOF  3
   INSTANCE: PART-1-3                                                                        
 LARGEST INCREMENT OF DISP.        -1.162E-03   AT NODE          2   DOF  3
   INSTANCE: {assembly node}                                                                 
 LARGEST CORRECTION TO DISP.        2.011E-08   AT NODE        120   DOF  3
   INSTANCE: PART-1-3                                                                        
          THE FORCE     EQUILIBRIUM EQUATIONS HAVE CONVERGED

 AVERAGE MOMENT                     1.014E-03   TIME AVG. MOMENT      8.282E-04
 LARGEST RESIDUAL MOMENT           -6.022E-11   AT NODE         32   DOF  5
   INSTANCE: PART-1-3                                                                        
 LARGEST INCREMENT OF ROTATION      1.807E-04   AT NODE         66   DOF  5
   INSTANCE: PART-2-1                                                                        
 LARGEST CORRECTION TO ROTATION     1.909E-08   AT NODE         11   DOF  5
   INSTANCE: PART-1-2                                                                        
          THE MOMENT    EQUILIBRIUM EQUATIONS HAVE CONVERGED

  MAXIMUM HALF-INCREMENT FORCE RESIDUAL IS   0.256     AND OCCURS AT NODE        109 INSTANCE PART-1-2                                                                        
  MAXIMUM HALF-INCREMENT MOMENT RESIDUAL IS  -0.611     AND OCCURS AT NODE         43 INSTANCE PART-1-2                                                                        

 ITERATION SUMMARY FOR THE INCREMENT:   2 TOTAL ITERATIONS, OF WHICH
   0 ARE SEVERE DISCONTINUITY ITERATIONS AND  2 ARE EQUILIBRIUM ITERATIONS.

 TIME INCREMENT COMPLETED  1.324E-05,  FRACTION OF STEP COMPLETED  1.705E-04
 STEP TIME COMPLETED       1.705E-04,  TOTAL TIME COMPLETED        1.705E-04


  INCREMENT     5 STARTS. ATTEMPT NUMBER  1, TIME INCREMENT  1.324E-05
 
	SYMMETRIC DIRECT SPARSE SOLVER RUNNING ON
 	1 HOST:        1 MPI RANK  x 2 THREADS
 	NUMBER OF EQUATIONS:     2772
 	NUMBER OF RHS:           1
 	NUMBER OF FLOPS:         3.172e+07

     CHECK POINT   START OF SOLVER    

     CHECK POINT  END OF SOLVER       

       ELAPSED USER TIME (SEC)      =  0.10000    
       ELAPSED SYSTEM TIME (SEC)    =   0.0000    
       ELAPSED TOTAL CPU TIME (SEC) =  0.10000    
       ELAPSED WALLCLOCK TIME (SEC) =          0

               CONVERGENCE CHECKS FOR EQUILIBRIUM ITERATION     1


 AVERAGE FORCE                      1.691E-02   TIME AVG. FORCE       1.199E-02
 LARGEST RESIDUAL FORCE            -9.266E-05   AT NODE         76   DOF  1
   INSTANCE: PART-1-3                                                                        
 LARGEST INCREMENT OF DISP.        -1.060E-03   AT NODE         11   DOF  3
   INSTANCE: PART-1-2                                                                        
 LARGEST CORRECTION TO DISP.       -2.262E-04   AT NODE        120   DOF  1
   INSTANCE: PART-1-3                                                                        
          FORCE     EQUILIBRIUM NOT ACHIEVED WITHIN TOLERANCE.

 AVERAGE MOMENT                     1.109E-03   TIME AVG. MOMENT      8.843E-04
 LARGEST RESIDUAL MOMENT           -1.561E-04   AT NODE         65   DOF  5
   INSTANCE: PART-1-3                                                                        
 LARGEST INCREMENT OF ROTATION     -1.411E-04   AT NODE         57   DOF  5
   INSTANCE: PART-1-1                                                                        
 LARGEST CORRECTION TO ROTATION     3.759E-04   AT NODE         99   DOF  5
   INSTANCE: PART-1-2                                                                        
          MOMENT    EQUILIBRIUM NOT ACHIEVED WITHIN TOLERANCE.
 
	SYMMETRIC DIRECT SPARSE SOLVER RUNNING ON
 	1 HOST:        1 MPI RANK  x 2 THREADS
 	NUMBER OF EQUATIONS:     2772
 	NUMBER OF RHS:           1
 	NUMBER OF FLOPS:         3.172e+07

     CHECK POINT   START OF SOLVER    

     CHECK POINT  END OF SOLVER       

       ELAPSED USER TIME (SEC)      =   0.0000    
       ELAPSED SYSTEM TIME (SEC)    =   0.0000    
       ELAPSED TOTAL CPU TIME (SEC) =   0.0000    
       ELAPSED WALLCLOCK TIME (SEC) =          0

               CONVERGENCE CHECKS FOR EQUILIBRIUM ITERATION     2


 AVERAGE FORCE                      1.691E-02   TIME AVG. FORCE       1.199E-02
 LARGEST RESIDUAL FORCE             5.712E-11   AT NODE        109   DOF  2
   INSTANCE: PART-1-3                                                                        
 LARGEST INCREMENT OF DISP.        -1.060E-03   AT NODE         11   DOF  3
   INSTANCE: PART-1-2                                                                        
 LARGEST CORRECTION TO DISP.        7.789E-08   AT NODE        120   DOF  3
   INSTANCE: PART-1-2                                                                        
          THE FORCE     EQUILIBRIUM EQUATIONS HAVE CONVERGED

 AVERAGE MOMENT                     1.108E-03   TIME AVG. MOMENT      8.842E-04
 LARGEST RESIDUAL MOMENT           -2.474E-10   AT NODE         32   DOF  5
   INSTANCE: PART-1-3                                                                        
 LARGEST INCREMENT OF ROTATION     -1.411E-04   AT NODE         57   DOF  5
   INSTANCE: PART-1-1                                                                        
 LARGEST CORRECTION TO ROTATION    -8.457E-08   AT NODE         11   DOF  5
   INSTANCE: PART-1-3                                                                        
          THE MOMENT    EQUILIBRIUM EQUATIONS HAVE CONVERGED

  MAXIMUM HALF-INCREMENT FORCE RESIDUAL IS  -0.174     AND OCCURS AT NODE        109 INSTANCE PART-1-2                                                                        
  MAXIMUM HALF-INCREMENT MOMENT RESIDUAL IS   0.747     AND OCCURS AT NODE         65 INSTANCE PART-1-2                                                                        

 ITERATION SUMMARY FOR THE INCREMENT:   2 TOTAL ITERATIONS, OF WHICH
   0 ARE SEVERE DISCONTINUITY ITERATIONS AND  2 ARE EQUILIBRIUM ITERATIONS.

 TIME INCREMENT COMPLETED  1.324E-05,  FRACTION OF STEP COMPLETED  1.838E-04
 STEP TIME COMPLETED       1.838E-04,  TOTAL TIME COMPLETED        1.838E-04


  INCREMENT     6 STARTS. ATTEMPT NUMBER  1, TIME INCREMENT  1.324E-05
 
	SYMMETRIC DIRECT SPARSE SOLVER RUNNING ON
 	1 HOST:        1 MPI RANK  x 2 THREADS
 	NUMBER OF EQUATIONS:     2772
 	NUMBER OF RHS:           1
 	NUMBER OF FLOPS:         3.172e+07

     CHECK POINT   START OF SOLVER    

     CHECK POINT  END OF SOLVER       

       ELAPSED USER TIME (SEC)      =   0.0000    
       ELAPSED SYSTEM TIME (SEC)    =   0.0000    
       ELAPSED TOTAL CPU TIME (SEC) =   0.0000    
       ELAPSED WALLCLOCK TIME (SEC) =          0

               CONVERGENCE CHECKS FOR EQUILIBRIUM ITERATION     1


 AVERAGE FORCE                      1.607E-02   TIME AVG. FORCE       1.267E-02
 LARGEST RESIDUAL FORCE            -8.817E-05   AT NODE         76   DOF  1
   INSTANCE: PART-1-3                                                                        
 LARGEST INCREMENT OF DISP.        -1.060E-03   AT NODE         11   DOF  3
   INSTANCE: PART-1-2                                                                        
 LARGEST CORRECTION TO DISP.       -2.673E-04   AT NODE        118   DOF  1
   INSTANCE: PART-1-3                                                                        
          FORCE     EQUILIBRIUM NOT ACHIEVED WITHIN TOLERANCE.

 AVERAGE MOMENT                     1.203E-03   TIME AVG. MOMENT      9.374E-04
 LARGEST RESIDUAL MOMENT            1.242E-04   AT NODE         88   DOF  5
   INSTANCE: PART-1-2                                                                        
 LARGEST INCREMENT OF ROTATION      1.374E-04   AT NODE        111   DOF  5
   INSTANCE: PART-1-1                                                                        
 LARGEST CORRECTION TO ROTATION    -3.506E-04   AT NODE         55   DOF  5
   INSTANCE: PART-1-2                                                                        
          MOMENT    EQUILIBRIUM NOT ACHIEVED WITHIN TOLERANCE.
 
	SYMMETRIC DIRECT SPARSE SOLVER RUNNING ON
 	1 HOST:        1 MPI RANK  x 2 THREADS
 	NUMBER OF EQUATIONS:     2772
 	NUMBER OF RHS:           1
 	NUMBER OF FLOPS:         3.172e+07

     CHECK POINT   START OF SOLVER    

     CHECK POINT  END OF SOLVER       

       ELAPSED USER TIME (SEC)      =   0.0000    
       ELAPSED SYSTEM TIME (SEC)    =   0.0000    
       ELAPSED TOTAL CPU TIME (SEC) =   0.0000    
       ELAPSED WALLCLOCK TIME (SEC) =          0

               CONVERGENCE CHECKS FOR EQUILIBRIUM ITERATION     2


 AVERAGE FORCE                      1.607E-02   TIME AVG. FORCE       1.267E-02
 LARGEST RESIDUAL FORCE             5.713E-11   AT NODE         74   DOF  1
   INSTANCE: PART-1-3                                                                        
 LARGEST INCREMENT OF DISP.        -1.060E-03   AT NODE         11   DOF  3
   INSTANCE: PART-1-2                                                                        
 LARGEST CORRECTION TO DISP.        6.787E-08   AT NODE         98   DOF  3
   INSTANCE: PART-1-3                                                                        
          THE FORCE     EQUILIBRIUM EQUATIONS HAVE CONVERGED

 AVERAGE MOMENT                     1.204E-03   TIME AVG. MOMENT      9.376E-04
 LARGEST RESIDUAL MOMENT           -2.370E-10   AT NODE         54   DOF  5
   INSTANCE: PART-1-3                                                                        
 LARGEST INCREMENT OF ROTATION      1.374E-04   AT NODE        111   DOF  5
   INSTANCE: PART-1-1                                                                        
 LARGEST CORRECTION TO ROTATION    -6.938E-08   AT NODE         11   DOF  5
   INSTANCE: PART-1-3                                                                        
          THE MOMENT    EQUILIBRIUM EQUATIONS HAVE CONVERGED

  MAXIMUM HALF-INCREMENT FORCE RESIDUAL IS   0.262     AND OCCURS AT NODE         98 INSTANCE PART-1-3                                                                        
  MAXIMUM HALF-INCREMENT MOMENT RESIDUAL IS  -0.851     AND OCCURS AT NODE         21 INSTANCE PART-1-2                                                                        

 ITERATION SUMMARY FOR THE INCREMENT:   2 TOTAL ITERATIONS, OF WHICH
   0 ARE SEVERE DISCONTINUITY ITERATIONS AND  2 ARE EQUILIBRIUM ITERATIONS.

 TIME INCREMENT COMPLETED  1.324E-05,  FRACTION OF STEP COMPLETED  1.970E-04
 STEP TIME COMPLETED       1.970E-04,  TOTAL TIME COMPLETED        1.970E-04


  INCREMENT     7 STARTS. ATTEMPT NUMBER  1, TIME INCREMENT  1.324E-05
 
	SYMMETRIC DIRECT SPARSE SOLVER RUNNING ON
 	1 HOST:        1 MPI RANK  x 2 THREADS
 	NUMBER OF EQUATIONS:     2772
 	NUMBER OF RHS:           1
 	NUMBER OF FLOPS:         3.172e+07

     CHECK POINT   START OF SOLVER    

     CHECK POINT  END OF SOLVER       

       ELAPSED USER TIME (SEC)      =  0.10000    
       ELAPSED SYSTEM TIME (SEC)    =   0.0000    
       ELAPSED TOTAL CPU TIME (SEC) =  0.10000    
       ELAPSED WALLCLOCK TIME (SEC) =          0

               CONVERGENCE CHECKS FOR EQUILIBRIUM ITERATION     1


 AVERAGE FORCE                      1.342E-02   TIME AVG. FORCE       1.278E-02
 LARGEST RESIDUAL FORCE             7.750E-05   AT NODE         32   DOF  1
   INSTANCE: PART-1-2                                                                        
 LARGEST INCREMENT OF DISP.        -1.060E-03   AT NODE         11   DOF  3
   INSTANCE: PART-1-2                                                                        
 LARGEST CORRECTION TO DISP.       -2.870E-04   AT NODE          1   DOF  3
   INSTANCE: PART-1-3                                                                        
          FORCE     EQUILIBRIUM NOT ACHIEVED WITHIN TOLERANCE.

 AVERAGE MOMENT                     1.137E-03   TIME AVG. MOMENT      9.661E-04
 LARGEST RESIDUAL MOMENT            8.463E-05   AT NODE         99   DOF  5
   INSTANCE: PART-1-2                                                                        
 LARGEST INCREMENT OF ROTATION     -1.754E-04   AT NODE         33   DOF  5
   INSTANCE: PART-2-1                                                                        
 LARGEST CORRECTION TO ROTATION    -3.295E-04   AT NODE         66   DOF  5
   INSTANCE: PART-1-3                                                                        
          MOMENT    EQUILIBRIUM NOT ACHIEVED WITHIN TOLERANCE.
 
	SYMMETRIC DIRECT SPARSE SOLVER RUNNING ON
 	1 HOST:        1 MPI RANK  x 2 THREADS
 	NUMBER OF EQUATIONS:     2772
 	NUMBER OF RHS:           1
 	NUMBER OF FLOPS:         3.172e+07

     CHECK POINT   START OF SOLVER    

     CHECK POINT  END OF SOLVER       

       ELAPSED USER TIME (SEC)      =  0.10000    
       ELAPSED SYSTEM TIME (SEC)    =   0.0000    
       ELAPSED TOTAL CPU TIME (SEC) =  0.10000    
       ELAPSED WALLCLOCK TIME (SEC) =          0

               CONVERGENCE CHECKS FOR EQUILIBRIUM ITERATION     2


 AVERAGE FORCE                      1.342E-02   TIME AVG. FORCE       1.278E-02
 LARGEST RESIDUAL FORCE            -4.287E-11   AT NODE        110   DOF  2
   INSTANCE: PART-1-2                                                                        
 LARGEST INCREMENT OF DISP.        -1.060E-03   AT NODE         11   DOF  3
   INSTANCE: PART-1-2                                                                        
 LARGEST CORRECTION TO DISP.        5.723E-08   AT NODE         21   DOF  3
   INSTANCE: PART-1-2                                                                        
          THE FORCE     EQUILIBRIUM EQUATIONS HAVE CONVERGED

 AVERAGE MOMENT                     1.137E-03   TIME AVG. MOMENT      9.661E-04
 LARGEST RESIDUAL MOMENT            2.073E-10   AT NODE         65   DOF  5
   INSTANCE: PART-1-2                                                                        
 LARGEST INCREMENT OF ROTATION     -1.754E-04   AT NODE         33   DOF  5
   INSTANCE: PART-2-1                                                                        
 LARGEST CORRECTION TO ROTATION     2.931E-08   AT NODE         99   DOF  5
   INSTANCE: PART-1-2                                                                        
          THE MOMENT    EQUILIBRIUM EQUATIONS HAVE CONVERGED

  MAXIMUM HALF-INCREMENT FORCE RESIDUAL IS  -0.295     AND OCCURS AT NODE         98 INSTANCE PART-1-3                                                                        
  MAXIMUM HALF-INCREMENT MOMENT RESIDUAL IS   0.927     AND OCCURS AT NODE         21 INSTANCE PART-1-2                                                                        

 ITERATION SUMMARY FOR THE INCREMENT:   2 TOTAL ITERATIONS, OF WHICH
   0 ARE SEVERE DISCONTINUITY ITERATIONS AND  2 ARE EQUILIBRIUM ITERATIONS.

 TIME INCREMENT COMPLETED  1.324E-05,  FRACTION OF STEP COMPLETED  2.102E-04
 STEP TIME COMPLETED       2.102E-04,  TOTAL TIME COMPLETED        2.102E-04


  INCREMENT     8 STARTS. ATTEMPT NUMBER  1, TIME INCREMENT  1.324E-05
 
	SYMMETRIC DIRECT SPARSE SOLVER RUNNING ON
 	1 HOST:        1 MPI RANK  x 2 THREADS
 	NUMBER OF EQUATIONS:     2772
 	NUMBER OF RHS:           1
 	NUMBER OF FLOPS:         3.172e+07

     CHECK POINT   START OF SOLVER    

     CHECK POINT  END OF SOLVER       

       ELAPSED USER TIME (SEC)      =  0.10000    
       ELAPSED SYSTEM TIME (SEC)    =   0.0000    
       ELAPSED TOTAL CPU TIME (SEC) =  0.10000    
       ELAPSED WALLCLOCK TIME (SEC) =          0

               CONVERGENCE CHECKS FOR EQUILIBRIUM ITERATION     1


 AVERAGE FORCE                      7.725E-03   TIME AVG. FORCE       1.215E-02
 LARGEST RESIDUAL FORCE             6.522E-05   AT NODE         21   DOF  1
   INSTANCE: PART-1-2                                                                        
 LARGEST INCREMENT OF DISP.        -1.060E-03   AT NODE         11   DOF  3
   INSTANCE: PART-1-2                                                                        
 LARGEST CORRECTION TO DISP.       -2.082E-04   AT NODE         62   DOF  3
   INSTANCE: PART-1-3                                                                        
          FORCE     EQUILIBRIUM NOT ACHIEVED WITHIN TOLERANCE.

 AVERAGE MOMENT                     1.238E-03   TIME AVG. MOMENT      1.000E-03
 LARGEST RESIDUAL MOMENT           -1.376E-05   AT NODE         43   DOF  5
   INSTANCE: PART-1-2                                                                        
 LARGEST INCREMENT OF ROTATION      1.508E-04   AT NODE         64   DOF  5
   INSTANCE: PART-2-1                                                                        
 LARGEST CORRECTION TO ROTATION     3.096E-04   AT NODE         77   DOF  5
   INSTANCE: PART-1-3                                                                        
          MOMENT    EQUILIBRIUM NOT ACHIEVED WITHIN TOLERANCE.
 
	SYMMETRIC DIRECT SPARSE SOLVER RUNNING ON
 	1 HOST:        1 MPI RANK  x 2 THREADS
 	NUMBER OF EQUATIONS:     2772
 	NUMBER OF RHS:           1
 	NUMBER OF FLOPS:         3.172e+07

     CHECK POINT   START OF SOLVER    

     CHECK POINT  END OF SOLVER       

       ELAPSED USER TIME (SEC)      =  0.10000    
       ELAPSED SYSTEM TIME (SEC)    =   0.0000    
       ELAPSED TOTAL CPU TIME (SEC) =  0.10000    
       ELAPSED WALLCLOCK TIME (SEC) =          0

               CONVERGENCE CHECKS FOR EQUILIBRIUM ITERATION     2


 AVERAGE FORCE                      7.725E-03   TIME AVG. FORCE       1.215E-02
 LARGEST RESIDUAL FORCE             6.340E-11   AT NODE         86   DOF  1
   INSTANCE: PART-1-3                                                                        
 LARGEST INCREMENT OF DISP.        -1.060E-03   AT NODE         11   DOF  3
   INSTANCE: PART-1-2                                                                        
 LARGEST CORRECTION TO DISP.        4.535E-08   AT NODE         21   DOF  3
   INSTANCE: PART-1-3                                                                        
          THE FORCE     EQUILIBRIUM EQUATIONS HAVE CONVERGED

 AVERAGE MOMENT                     1.238E-03   TIME AVG. MOMENT      1.000E-03
 LARGEST RESIDUAL MOMENT           -1.968E-10   AT NODE        121   DOF  6
   INSTANCE: PART-1-2                                                                        
 LARGEST INCREMENT OF ROTATION      1.508E-04   AT NODE         64   DOF  5
   INSTANCE: PART-2-1                                                                        
 LARGEST CORRECTION TO ROTATION     4.322E-08   AT NODE         11   DOF  4
   INSTANCE: PART-1-2                                                                        
          THE MOMENT    EQUILIBRIUM EQUATIONS HAVE CONVERGED

  MAXIMUM HALF-INCREMENT FORCE RESIDUAL IS   0.280     AND OCCURS AT NODE        109 INSTANCE PART-1-3                                                                        
  MAXIMUM HALF-INCREMENT MOMENT RESIDUAL IS  -0.978     AND OCCURS AT NODE        109 INSTANCE PART-1-2                                                                        

 ITERATION SUMMARY FOR THE INCREMENT:   2 TOTAL ITERATIONS, OF WHICH
   0 ARE SEVERE DISCONTINUITY ITERATIONS AND  2 ARE EQUILIBRIUM ITERATIONS.

 TIME INCREMENT COMPLETED  1.324E-05,  FRACTION OF STEP COMPLETED  2.235E-04
 STEP TIME COMPLETED       2.235E-04,  TOTAL TIME COMPLETED        2.235E-04


  INCREMENT     9 STARTS. ATTEMPT NUMBER  1, TIME INCREMENT  1.324E-05
 
	SYMMETRIC DIRECT SPARSE SOLVER RUNNING ON
 	1 HOST:        1 MPI RANK  x 2 THREADS
 	NUMBER OF EQUATIONS:     2772
 	NUMBER OF RHS:           1
 	NUMBER OF FLOPS:         3.172e+07

     CHECK POINT   START OF SOLVER    

     CHECK POINT  END OF SOLVER       

       ELAPSED USER TIME (SEC)      =  0.10000    
       ELAPSED SYSTEM TIME (SEC)    =   0.0000    
       ELAPSED TOTAL CPU TIME (SEC) =  0.10000    
       ELAPSED WALLCLOCK TIME (SEC) =          0

               CONVERGENCE CHECKS FOR EQUILIBRIUM ITERATION     1


 AVERAGE FORCE                      7.422E-03   TIME AVG. FORCE       1.162E-02
 LARGEST RESIDUAL FORCE             5.987E-05   AT NODE         32   DOF  3
   INSTANCE: PART-1-2                                                                        
 LARGEST INCREMENT OF DISP.        -1.060E-03   AT NODE         11   DOF  3
   INSTANCE: PART-1-2                                                                        
 LARGEST CORRECTION TO DISP.        3.101E-04   AT NODE          1   DOF  3
   INSTANCE: PART-1-3                                                                        
          FORCE     EQUILIBRIUM NOT ACHIEVED WITHIN TOLERANCE.

 AVERAGE MOMENT                     1.401E-03   TIME AVG. MOMENT      1.045E-03
 LARGEST RESIDUAL MOMENT           -5.850E-05   AT NODE         32   DOF  5
   INSTANCE: PART-1-2                                                                        
 LARGEST INCREMENT OF ROTATION      1.633E-04   AT NODE         56   DOF  5
   INSTANCE: PART-1-1                                                                        
 LARGEST CORRECTION TO ROTATION    -2.735E-04   AT NODE         77   DOF  5
   INSTANCE: PART-1-3                                                                        
          MOMENT    EQUILIBRIUM NOT ACHIEVED WITHIN TOLERANCE.
 
	SYMMETRIC DIRECT SPARSE SOLVER RUNNING ON
 	1 HOST:        1 MPI RANK  x 2 THREADS
 	NUMBER OF EQUATIONS:     2772
 	NUMBER OF RHS:           1
 	NUMBER OF FLOPS:         3.172e+07

     CHECK POINT   START OF SOLVER    

     CHECK POINT  END OF SOLVER       

       ELAPSED USER TIME (SEC)      =   0.0000    
       ELAPSED SYSTEM TIME (SEC)    =   0.0000    
       ELAPSED TOTAL CPU TIME (SEC) =   0.0000    
       ELAPSED WALLCLOCK TIME (SEC) =          0

               CONVERGENCE CHECKS FOR EQUILIBRIUM ITERATION     2


 AVERAGE FORCE                      7.422E-03   TIME AVG. FORCE       1.162E-02
 LARGEST RESIDUAL FORCE            -6.730E-11   AT NODE        110   DOF  2
   INSTANCE: PART-1-2                                                                        
 LARGEST INCREMENT OF DISP.        -1.060E-03   AT NODE         11   DOF  3
   INSTANCE: PART-1-2                                                                        
 LARGEST CORRECTION TO DISP.       -4.853E-08   AT NODE         32   DOF  1
   INSTANCE: PART-1-3                                                                        
          THE FORCE     EQUILIBRIUM EQUATIONS HAVE CONVERGED

 AVERAGE MOMENT                     1.401E-03   TIME AVG. MOMENT      1.045E-03
 LARGEST RESIDUAL MOMENT            1.436E-10   AT NODE         21   DOF  6
   INSTANCE: PART-1-3                                                                        
 LARGEST INCREMENT OF ROTATION      1.633E-04   AT NODE         56   DOF  5
   INSTANCE: PART-1-1                                                                        
 LARGEST CORRECTION TO ROTATION    -5.262E-08   AT NODE         11   DOF  5
   INSTANCE: PART-1-2                                                                        
          THE MOMENT    EQUILIBRIUM EQUATIONS HAVE CONVERGED

  MAXIMUM HALF-INCREMENT FORCE RESIDUAL IS  -0.239     AND OCCURS AT NODE        109 INSTANCE PART-1-3                                                                        
  MAXIMUM HALF-INCREMENT MOMENT RESIDUAL IS    1.01     AND OCCURS AT NODE        109 INSTANCE PART-1-2                                                                        

 ITERATION SUMMARY FOR THE INCREMENT:   2 TOTAL ITERATIONS, OF WHICH
   0 ARE SEVERE DISCONTINUITY ITERATIONS AND  2 ARE EQUILIBRIUM ITERATIONS.

 TIME INCREMENT COMPLETED  1.324E-05,  FRACTION OF STEP COMPLETED  2.367E-04
 STEP TIME COMPLETED       2.367E-04,  TOTAL TIME COMPLETED        2.367E-04


  INCREMENT    10 STARTS. ATTEMPT NUMBER  1, TIME INCREMENT  1.324E-05
 
	SYMMETRIC DIRECT SPARSE SOLVER RUNNING ON
 	1 HOST:        1 MPI RANK  x 2 THREADS
 	NUMBER OF EQUATIONS:     2772
 	NUMBER OF RHS:           1
 	NUMBER OF FLOPS:         3.172e+07

     CHECK POINT   START OF SOLVER    

     CHECK POINT  END OF SOLVER       

       ELAPSED USER TIME (SEC)      =   0.0000    
       ELAPSED SYSTEM TIME (SEC)    =   0.0000    
       ELAPSED TOTAL CPU TIME (SEC) =   0.0000    
       ELAPSED WALLCLOCK TIME (SEC) =          0

               CONVERGENCE CHECKS FOR EQUILIBRIUM ITERATION     1


 AVERAGE FORCE                      9.626E-03   TIME AVG. FORCE       1.142E-02
 LARGEST RESIDUAL FORCE             4.649E-05   AT NODE         98   DOF  3
   INSTANCE: PART-1-2                                                                        
 LARGEST INCREMENT OF DISP.        -1.060E-03   AT NODE         11   DOF  3
   INSTANCE: PART-1-2                                                                        
 LARGEST CORRECTION TO DISP.        2.254E-04   AT NODE        118   DOF  1
   INSTANCE: PART-1-3                                                                        
 ESTIMATE OF DISP.    CORRECTION    2.051E-08
 FORCE     EQUILIB. ACCEPTED BASED ON SMALL RESIDUAL AND ESTIMATED CORRECTION

 AVERAGE MOMENT                     1.430E-03   TIME AVG. MOMENT      1.083E-03
 LARGEST RESIDUAL MOMENT            2.279E-05   AT NODE         33   DOF  5
   INSTANCE: PART-1-3                                                                        
 LARGEST INCREMENT OF ROTATION     -1.797E-04   AT NODE         66   DOF  5
   INSTANCE: PART-2-1                                                                        
 LARGEST CORRECTION TO ROTATION     2.327E-04   AT NODE         66   DOF  5
   INSTANCE: PART-1-3                                                                        
          MOMENT    EQUILIBRIUM NOT ACHIEVED WITHIN TOLERANCE.
 
	SYMMETRIC DIRECT SPARSE SOLVER RUNNING ON
 	1 HOST:        1 MPI RANK  x 2 THREADS
 	NUMBER OF EQUATIONS:     2772
 	NUMBER OF RHS:           1
 	NUMBER OF FLOPS:         3.172e+07

     CHECK POINT   START OF SOLVER    

     CHECK POINT  END OF SOLVER       

       ELAPSED USER TIME (SEC)      =   0.0000    
       ELAPSED SYSTEM TIME (SEC)    =   0.0000    
       ELAPSED TOTAL CPU TIME (SEC) =   0.0000    
       ELAPSED WALLCLOCK TIME (SEC) =          0

               CONVERGENCE CHECKS FOR EQUILIBRIUM ITERATION     2


 AVERAGE FORCE                      9.626E-03   TIME AVG. FORCE       1.142E-02
 LARGEST RESIDUAL FORCE             4.556E-11   AT NODE        105   DOF  1
   INSTANCE: PART-1-3                                                                        
 LARGEST INCREMENT OF DISP.        -1.060E-03   AT NODE         11   DOF  3
   INSTANCE: PART-1-2                                                                        
 LARGEST CORRECTION TO DISP.       -3.132E-08   AT NODE         98   DOF  1
   INSTANCE: PART-1-3                                                                        
          THE FORCE     EQUILIBRIUM EQUATIONS HAVE CONVERGED

 AVERAGE MOMENT                     1.430E-03   TIME AVG. MOMENT      1.083E-03
 LARGEST RESIDUAL MOMENT            1.238E-10   AT NODE        109   DOF  5
   INSTANCE: PART-1-2                                                                        
 LARGEST INCREMENT OF ROTATION     -1.797E-04   AT NODE         66   DOF  5
   INSTANCE: PART-2-1                                                                        
 LARGEST CORRECTION TO ROTATION     2.380E-08   AT NODE         33   DOF  5
   INSTANCE: PART-1-3                                                                        
          THE MOMENT    EQUILIBRIUM EQUATIONS HAVE CONVERGED

  MAXIMUM HALF-INCREMENT FORCE RESIDUAL IS   0.223     AND OCCURS AT NODE         98 INSTANCE PART-1-2                                                                        
  MAXIMUM HALF-INCREMENT MOMENT RESIDUAL IS   -1.02     AND OCCURS AT NODE        109 INSTANCE PART-1-2                                                                        

 ITERATION SUMMARY FOR THE INCREMENT:   2 TOTAL ITERATIONS, OF WHICH
   0 ARE SEVERE DISCONTINUITY ITERATIONS AND  2 ARE EQUILIBRIUM ITERATIONS.

 TIME INCREMENT COMPLETED  1.324E-05,  FRACTION OF STEP COMPLETED  2.500E-04
 STEP TIME COMPLETED       2.500E-04,  TOTAL TIME COMPLETED        2.500E-04


  INCREMENT    11 STARTS. ATTEMPT NUMBER  1, TIME INCREMENT  1.324E-05
 
	SYMMETRIC DIRECT SPARSE SOLVER RUNNING ON
 	1 HOST:        1 MPI RANK  x 2 THREADS
 	NUMBER OF EQUATIONS:     2772
 	NUMBER OF RHS:           1
 	NUMBER OF FLOPS:         3.172e+07

     CHECK POINT   START OF SOLVER    

     CHECK POINT  END OF SOLVER       

       ELAPSED USER TIME (SEC)      =   0.0000    
       ELAPSED SYSTEM TIME (SEC)    =   0.0000    
       ELAPSED TOTAL CPU TIME (SEC) =   0.0000    
       ELAPSED WALLCLOCK TIME (SEC) =          0

               CONVERGENCE CHECKS FOR EQUILIBRIUM ITERATION     1


 AVERAGE FORCE                      1.486E-02   TIME AVG. FORCE       1.173E-02
 LARGEST RESIDUAL FORCE             4.467E-05   AT NODE         65   DOF  3
   INSTANCE: PART-1-2                                                                        
[...]

     CHECK POINT  END OF SOLVER       

       ELAPSED USER TIME (SEC)      =   0.0000    
       ELAPSED SYSTEM TIME (SEC)    =   0.0000    
       ELAPSED TOTAL CPU TIME (SEC) =   0.0000    
       ELAPSED WALLCLOCK TIME (SEC) =          0

               CONVERGENCE CHECKS FOR EQUILIBRIUM ITERATION     2


 AVERAGE FORCE                      3.311E-07   TIME AVG. FORCE       4.501E-06
 LARGEST RESIDUAL FORCE             4.529E-11   AT NODE         21   DOF  1
   INSTANCE: PART-1-3                                                                        
 LARGEST INCREMENT OF DISP.         -1.36       AT NODE         11   DOF  3
   INSTANCE: PART-1-2                                                                        
 LARGEST CORRECTION TO DISP.       -2.154E-06   AT NODE        121   DOF  3
   INSTANCE: PART-1-2                                                                        
          THE FORCE     EQUILIBRIUM EQUATIONS HAVE CONVERGED

 AVERAGE MOMENT                     2.141E-06   TIME AVG. MOMENT      5.551E-06
 LARGEST RESIDUAL MOMENT            2.768E-11   AT NODE         88   DOF  5
   INSTANCE: PART-1-2                                                                        
 LARGEST INCREMENT OF ROTATION      1.183E-02   AT NODE          1   DOF  5
   INSTANCE: PART-1-2                                                                        
 LARGEST CORRECTION TO ROTATION     2.147E-08   AT NODE        121   DOF  5
   INSTANCE: PART-1-2                                                                        
          THE MOMENT    EQUILIBRIUM EQUATIONS HAVE CONVERGED

  MAXIMUM HALF-INCREMENT FORCE RESIDUAL IS  -3.495E-03 AND OCCURS AT NODE        110 INSTANCE PART-1-1                                                                        
  MAXIMUM HALF-INCREMENT MOMENT RESIDUAL IS   4.689E-03 AND OCCURS AT NODE         65 INSTANCE PART-1-2                                                                        

 ITERATION SUMMARY FOR THE INCREMENT:   2 TOTAL ITERATIONS, OF WHICH
   0 ARE SEVERE DISCONTINUITY ITERATIONS AND  2 ARE EQUILIBRIUM ITERATIONS.

 TIME INCREMENT COMPLETED  1.757E-02,  FRACTION OF STEP COMPLETED  0.926    
 STEP TIME COMPLETED       0.926    ,  TOTAL TIME COMPLETED         1.93    


  INCREMENT   158 STARTS. ATTEMPT NUMBER  1, TIME INCREMENT  1.757E-02
 
	SYMMETRIC DIRECT SPARSE SOLVER RUNNING ON
 	1 HOST:        1 MPI RANK  x 2 THREADS
 	NUMBER OF EQUATIONS:     2772
 	NUMBER OF RHS:           1
 	NUMBER OF FLOPS:         3.172e+07

     CHECK POINT   START OF SOLVER    

     CHECK POINT  END OF SOLVER       

       ELAPSED USER TIME (SEC)      =  0.10000    
       ELAPSED SYSTEM TIME (SEC)    =   0.0000    
       ELAPSED TOTAL CPU TIME (SEC) =  0.10000    
       ELAPSED WALLCLOCK TIME (SEC) =          0

               CONVERGENCE CHECKS FOR EQUILIBRIUM ITERATION     1


 AVERAGE FORCE                      3.281E-07   TIME AVG. FORCE       4.474E-06
 LARGEST RESIDUAL FORCE             8.020E-09   AT NODE         22   DOF  3
   INSTANCE: PART-1-2                                                                        
 LARGEST INCREMENT OF DISP.         -1.36       AT NODE        121   DOF  3
   INSTANCE: PART-1-2                                                                        
 LARGEST CORRECTION TO DISP.        4.857E-05   AT NODE        118   DOF  3
   INSTANCE: PART-1-3                                                                        
          THE FORCE     EQUILIBRIUM EQUATIONS HAVE CONVERGED

 AVERAGE MOMENT                     2.191E-06   TIME AVG. MOMENT      5.530E-06
 LARGEST RESIDUAL MOMENT           -1.751E-08   AT NODE         21   DOF  5
   INSTANCE: PART-1-3                                                                        
 LARGEST INCREMENT OF ROTATION      1.188E-02   AT NODE        111   DOF  5
   INSTANCE: PART-1-2                                                                        
 LARGEST CORRECTION TO ROTATION    -1.527E-06   AT NODE         11   DOF  5
   INSTANCE: PART-1-3                                                                        
          THE MOMENT    EQUILIBRIUM EQUATIONS HAVE CONVERGED

  MAXIMUM HALF-INCREMENT FORCE RESIDUAL IS   2.049E-03 AND OCCURS AT NODE        110 INSTANCE PART-1-1                                                                        
  MAXIMUM HALF-INCREMENT MOMENT RESIDUAL IS  -2.806E-03 AND OCCURS AT NODE         65 INSTANCE PART-1-2                                                                        

 ITERATION SUMMARY FOR THE INCREMENT:   1 TOTAL ITERATIONS, OF WHICH
   0 ARE SEVERE DISCONTINUITY ITERATIONS AND  1 ARE EQUILIBRIUM ITERATIONS.

 TIME INCREMENT COMPLETED  1.757E-02,  FRACTION OF STEP COMPLETED  0.943    
 STEP TIME COMPLETED       0.943    ,  TOTAL TIME COMPLETED         1.94    


  INCREMENT   159 STARTS. ATTEMPT NUMBER  1, TIME INCREMENT  1.757E-02
 
	SYMMETRIC DIRECT SPARSE SOLVER RUNNING ON
 	1 HOST:        1 MPI RANK  x 2 THREADS
 	NUMBER OF EQUATIONS:     2772
 	NUMBER OF RHS:           1
 	NUMBER OF FLOPS:         3.172e+07

     CHECK POINT   START OF SOLVER    

     CHECK POINT  END OF SOLVER       

       ELAPSED USER TIME (SEC)      =   0.0000    
       ELAPSED SYSTEM TIME (SEC)    =   0.0000    
       ELAPSED TOTAL CPU TIME (SEC) =   0.0000    
       ELAPSED WALLCLOCK TIME (SEC) =          0

               CONVERGENCE CHECKS FOR EQUILIBRIUM ITERATION     1


 AVERAGE FORCE                      3.455E-07   TIME AVG. FORCE       4.448E-06
 LARGEST RESIDUAL FORCE            -3.792E-09   AT NODE         56   DOF  1
   INSTANCE: PART-1-1                                                                        
 LARGEST INCREMENT OF DISP.         -1.35       AT NODE         11   DOF  3
   INSTANCE: PART-1-2                                                                        
 LARGEST CORRECTION TO DISP.        7.269E-05   AT NODE          1   DOF  1
   INSTANCE: PART-1-1                                                                        
          THE FORCE     EQUILIBRIUM EQUATIONS HAVE CONVERGED

 AVERAGE MOMENT                     2.277E-06   TIME AVG. MOMENT      5.509E-06
 LARGEST RESIDUAL MOMENT           -5.585E-08   AT NODE         13   DOF  5
   INSTANCE: PART-1-3                                                                        
 LARGEST INCREMENT OF ROTATION      1.193E-02   AT NODE          1   DOF  5
   INSTANCE: PART-1-2                                                                        
 LARGEST CORRECTION TO ROTATION     1.940E-06   AT NODE          1   DOF  5
   INSTANCE: PART-1-2                                                                        
          MOMENT    EQUILIBRIUM NOT ACHIEVED WITHIN TOLERANCE.
 
	SYMMETRIC DIRECT SPARSE SOLVER RUNNING ON
 	1 HOST:        1 MPI RANK  x 2 THREADS
 	NUMBER OF EQUATIONS:     2772
 	NUMBER OF RHS:           1
 	NUMBER OF FLOPS:         3.172e+07

     CHECK POINT   START OF SOLVER    

     CHECK POINT  END OF SOLVER       

       ELAPSED USER TIME (SEC)      =   0.0000    
       ELAPSED SYSTEM TIME (SEC)    =   0.0000    
       ELAPSED TOTAL CPU TIME (SEC) =   0.0000    
       ELAPSED WALLCLOCK TIME (SEC) =          0

               CONVERGENCE CHECKS FOR EQUILIBRIUM ITERATION     2


 AVERAGE FORCE                      3.453E-07   TIME AVG. FORCE       4.448E-06
 LARGEST RESIDUAL FORCE             5.017E-11   AT NODE         38   DOF  1
   INSTANCE: PART-1-3                                                                        
 LARGEST INCREMENT OF DISP.         -1.35       AT NODE         11   DOF  3
   INSTANCE: PART-1-2                                                                        
 LARGEST CORRECTION TO DISP.       -2.203E-06   AT NODE         11   DOF  3
   INSTANCE: PART-1-3                                                                        
          THE FORCE     EQUILIBRIUM EQUATIONS HAVE CONVERGED

 AVERAGE MOMENT                     2.282E-06   TIME AVG. MOMENT      5.509E-06
 LARGEST RESIDUAL MOMENT           -3.153E-11   AT NODE         97   DOF  5
   INSTANCE: PART-1-3                                                                        
 LARGEST INCREMENT OF ROTATION      1.193E-02   AT NODE          1   DOF  5
   INSTANCE: PART-1-2                                                                        
 LARGEST CORRECTION TO ROTATION    -2.232E-08   AT NODE         11   DOF  5
   INSTANCE: PART-1-3                                                                        
          THE MOMENT    EQUILIBRIUM EQUATIONS HAVE CONVERGED

  MAXIMUM HALF-INCREMENT FORCE RESIDUAL IS  -3.575E-03 AND OCCURS AT NODE        110 INSTANCE PART-1-1                                                                        
  MAXIMUM HALF-INCREMENT MOMENT RESIDUAL IS   4.443E-03 AND OCCURS AT NODE         65 INSTANCE PART-1-2                                                                        

 ITERATION SUMMARY FOR THE INCREMENT:   2 TOTAL ITERATIONS, OF WHICH
   0 ARE SEVERE DISCONTINUITY ITERATIONS AND  2 ARE EQUILIBRIUM ITERATIONS.

 TIME INCREMENT COMPLETED  1.757E-02,  FRACTION OF STEP COMPLETED  0.961    
 STEP TIME COMPLETED       0.961    ,  TOTAL TIME COMPLETED         1.96    


  INCREMENT   160 STARTS. ATTEMPT NUMBER  1, TIME INCREMENT  1.757E-02
 
	SYMMETRIC DIRECT SPARSE SOLVER RUNNING ON
 	1 HOST:        1 MPI RANK  x 2 THREADS
 	NUMBER OF EQUATIONS:     2772
 	NUMBER OF RHS:           1
 	NUMBER OF FLOPS:         3.172e+07

     CHECK POINT   START OF SOLVER    

     CHECK POINT  END OF SOLVER       

       ELAPSED USER TIME (SEC)      =  0.10000    
       ELAPSED SYSTEM TIME (SEC)    =   0.0000    
       ELAPSED TOTAL CPU TIME (SEC) =  0.10000    
       ELAPSED WALLCLOCK TIME (SEC) =          0

               CONVERGENCE CHECKS FOR EQUILIBRIUM ITERATION     1


 AVERAGE FORCE                      3.432E-07   TIME AVG. FORCE       4.423E-06
 LARGEST RESIDUAL FORCE             1.037E-08   AT NODE        110   DOF  3
   INSTANCE: PART-1-2                                                                        
 LARGEST INCREMENT OF DISP.         -1.35       AT NODE         11   DOF  3
   INSTANCE: PART-1-2                                                                        
 LARGEST CORRECTION TO DISP.        5.327E-05   AT NODE          7   DOF  3
   INSTANCE: PART-1-3                                                                        
          THE FORCE     EQUILIBRIUM EQUATIONS HAVE CONVERGED

 AVERAGE MOMENT                     2.351E-06   TIME AVG. MOMENT      5.490E-06
 LARGEST RESIDUAL MOMENT           -2.269E-08   AT NODE        109   DOF  5
   INSTANCE: PART-1-3                                                                        
 LARGEST INCREMENT OF ROTATION      1.199E-02   AT NODE          1   DOF  5
   INSTANCE: PART-1-2                                                                        
 LARGEST CORRECTION TO ROTATION    -1.758E-06   AT NODE         11   DOF  5
   INSTANCE: PART-1-3                                                                        
          THE MOMENT    EQUILIBRIUM EQUATIONS HAVE CONVERGED

  MAXIMUM HALF-INCREMENT FORCE RESIDUAL IS   1.956E-03 AND OCCURS AT NODE        110 INSTANCE PART-1-1                                                                        
  MAXIMUM HALF-INCREMENT MOMENT RESIDUAL IS  -2.486E-03 AND OCCURS AT NODE         20 INSTANCE PART-2-1                                                                        

 ITERATION SUMMARY FOR THE INCREMENT:   1 TOTAL ITERATIONS, OF WHICH
   0 ARE SEVERE DISCONTINUITY ITERATIONS AND  1 ARE EQUILIBRIUM ITERATIONS.

 TIME INCREMENT COMPLETED  1.757E-02,  FRACTION OF STEP COMPLETED  0.979    
 STEP TIME COMPLETED       0.979    ,  TOTAL TIME COMPLETED         1.98    


  INCREMENT   161 STARTS. ATTEMPT NUMBER  1, TIME INCREMENT  1.757E-02
 
	SYMMETRIC DIRECT SPARSE SOLVER RUNNING ON
 	1 HOST:        1 MPI RANK  x 2 THREADS
 	NUMBER OF EQUATIONS:     2772
 	NUMBER OF RHS:           1
 	NUMBER OF FLOPS:         3.172e+07

     CHECK POINT   START OF SOLVER    

     CHECK POINT  END OF SOLVER       

       ELAPSED USER TIME (SEC)      =   0.0000    
       ELAPSED SYSTEM TIME (SEC)    =   0.0000    
       ELAPSED TOTAL CPU TIME (SEC) =   0.0000    
       ELAPSED WALLCLOCK TIME (SEC) =          0

               CONVERGENCE CHECKS FOR EQUILIBRIUM ITERATION     1


 AVERAGE FORCE                      3.606E-07   TIME AVG. FORCE       4.397E-06
 LARGEST RESIDUAL FORCE             4.682E-09   AT NODE         66   DOF  1
   INSTANCE: PART-2-1                                                                        
 LARGEST INCREMENT OF DISP.         -1.35       AT NODE        121   DOF  3
   INSTANCE: PART-1-2                                                                        
 LARGEST CORRECTION TO DISP.        7.758E-05   AT NODE         88   DOF  3
   INSTANCE: PART-1-2                                                                        
          THE FORCE     EQUILIBRIUM EQUATIONS HAVE CONVERGED

 AVERAGE MOMENT                     2.429E-06   TIME AVG. MOMENT      5.471E-06
 LARGEST RESIDUAL MOMENT           -5.915E-08   AT NODE         13   DOF  5
   INSTANCE: PART-1-3                                                                        
 LARGEST INCREMENT OF ROTATION      1.205E-02   AT NODE        111   DOF  5
   INSTANCE: PART-1-2                                                                        
 LARGEST CORRECTION TO ROTATION     2.038E-06   AT NODE          1   DOF  5
   INSTANCE: PART-1-2                                                                        
          MOMENT    EQUILIBRIUM NOT ACHIEVED WITHIN TOLERANCE.
 
	SYMMETRIC DIRECT SPARSE SOLVER RUNNING ON
 	1 HOST:        1 MPI RANK  x 2 THREADS
 	NUMBER OF EQUATIONS:     2772
 	NUMBER OF RHS:           1
 	NUMBER OF FLOPS:         3.172e+07

     CHECK POINT   START OF SOLVER    

     CHECK POINT  END OF SOLVER       

       ELAPSED USER TIME (SEC)      =  0.10000    
       ELAPSED SYSTEM TIME (SEC)    =   0.0000    
       ELAPSED TOTAL CPU TIME (SEC) =  0.10000    
       ELAPSED WALLCLOCK TIME (SEC) =          0

               CONVERGENCE CHECKS FOR EQUILIBRIUM ITERATION     2


 AVERAGE FORCE                      3.604E-07   TIME AVG. FORCE       4.397E-06
 LARGEST RESIDUAL FORCE            -4.490E-11   AT NODE         93   DOF  1
   INSTANCE: PART-1-3                                                                        
 LARGEST INCREMENT OF DISP.         -1.35       AT NODE        121   DOF  3
   INSTANCE: PART-1-2                                                                        
 LARGEST CORRECTION TO DISP.       -2.288E-06   AT NODE         11   DOF  3
   INSTANCE: PART-1-2                                                                        
          THE FORCE     EQUILIBRIUM EQUATIONS HAVE CONVERGED

 AVERAGE MOMENT                     2.436E-06   TIME AVG. MOMENT      5.471E-06
 LARGEST RESIDUAL MOMENT            2.828E-11   AT NODE         64   DOF  5
   INSTANCE: PART-1-3                                                                        
 LARGEST INCREMENT OF ROTATION      1.205E-02   AT NODE        111   DOF  5
   INSTANCE: PART-1-2                                                                        
 LARGEST CORRECTION TO ROTATION    -2.346E-08   AT NODE         11   DOF  5
   INSTANCE: PART-1-3                                                                        
          THE MOMENT    EQUILIBRIUM EQUATIONS HAVE CONVERGED

  MAXIMUM HALF-INCREMENT FORCE RESIDUAL IS   3.641E-03 AND OCCURS AT NODE         22 INSTANCE PART-1-2                                                                        
  MAXIMUM HALF-INCREMENT MOMENT RESIDUAL IS   4.223E-03 AND OCCURS AT NODE         20 INSTANCE PART-2-1                                                                        

 ITERATION SUMMARY FOR THE INCREMENT:   2 TOTAL ITERATIONS, OF WHICH
   0 ARE SEVERE DISCONTINUITY ITERATIONS AND  2 ARE EQUILIBRIUM ITERATIONS.

 TIME INCREMENT COMPLETED  1.757E-02,  FRACTION OF STEP COMPLETED  0.996    
 STEP TIME COMPLETED       0.996    ,  TOTAL TIME COMPLETED         2.00    


  INCREMENT   162 STARTS. ATTEMPT NUMBER  1, TIME INCREMENT  3.931E-03
 
	SYMMETRIC DIRECT SPARSE SOLVER RUNNING ON
 	1 HOST:        1 MPI RANK  x 2 THREADS
 	NUMBER OF EQUATIONS:     2772
 	NUMBER OF RHS:           1
 	NUMBER OF FLOPS:         3.172e+07

     CHECK POINT   START OF SOLVER    

     CHECK POINT  END OF SOLVER       

       ELAPSED USER TIME (SEC)      =  0.10000    
       ELAPSED SYSTEM TIME (SEC)    =   0.0000    
       ELAPSED TOTAL CPU TIME (SEC) =  0.10000    
       ELAPSED WALLCLOCK TIME (SEC) =          0

               CONVERGENCE CHECKS FOR EQUILIBRIUM ITERATION     1


 AVERAGE FORCE                      3.583E-07   TIME AVG. FORCE       4.372E-06
 LARGEST RESIDUAL FORCE             3.140E-09   AT NODE         44   DOF  2
   INSTANCE: PART-1-2                                                                        
 LARGEST INCREMENT OF DISP.        -0.301       AT NODE        121   DOF  3
   INSTANCE: PART-1-2                                                                        
 LARGEST CORRECTION TO DISP.        2.920E-06   AT NODE          1   DOF  1
   INSTANCE: PART-1-1                                                                        
          THE FORCE     EQUILIBRIUM EQUATIONS HAVE CONVERGED

 AVERAGE MOMENT                     2.498E-06   TIME AVG. MOMENT      5.452E-06
 LARGEST RESIDUAL MOMENT           -8.782E-11   AT NODE         20   DOF  5
   INSTANCE: PART-1-3                                                                        
 LARGEST INCREMENT OF ROTATION      2.704E-03   AT NODE        111   DOF  5
   INSTANCE: PART-1-2                                                                        
 LARGEST CORRECTION TO ROTATION     1.656E-07   AT NODE         66   DOF  5
   INSTANCE: PART-1-2                                                                        
          THE MOMENT    EQUILIBRIUM EQUATIONS HAVE CONVERGED

  MAXIMUM HALF-INCREMENT FORCE RESIDUAL IS  -8.920E-05 AND OCCURS AT NODE         66 INSTANCE PART-1-2                                                                        
  MAXIMUM HALF-INCREMENT MOMENT RESIDUAL IS  -8.683E-05 AND OCCURS AT NODE        109 INSTANCE PART-2-1                                                                        

 ITERATION SUMMARY FOR THE INCREMENT:   1 TOTAL ITERATIONS, OF WHICH
   0 ARE SEVERE DISCONTINUITY ITERATIONS AND  1 ARE EQUILIBRIUM ITERATIONS.

 TIME INCREMENT COMPLETED  3.931E-03,  FRACTION OF STEP COMPLETED   1.00    
 STEP TIME COMPLETED        1.00    ,  TOTAL TIME COMPLETED         2.00    


          THE ANALYSIS HAS BEEN COMPLETED



     ANALYSIS SUMMARY:
     TOTAL OF        329  INCREMENTS
                      16  CUTBACKS IN AUTOMATIC INCREMENTATION
                     681  ITERATIONS INCLUDING CONTACT ITERATIONS IF PRESENT
                     685  PASSES THROUGH THE EQUATION SOLVER OF WHICH 
                     685  INVOLVE MATRIX DECOMPOSITION, INCLUDING
                       4  DECOMPOSITION(S) OF THE MASS MATRIX
                       1  REORDERING OF EQUATIONS TO MINIMIZE WAVEFRONT
                       0  ADDITIONAL RESIDUAL EVALUATIONS FOR LINE SEARCHES
                       0  ADDITIONAL OPERATOR EVALUATIONS FOR LINE SEARCHES
                      93  WARNING MESSAGES DURING USER INPUT PROCESSING
                      16  WARNING MESSAGES DURING ANALYSIS
                       0  ANALYSIS WARNINGS ARE NUMERICAL PROBLEM MESSAGES
                      16  ANALYSIS WARNINGS ARE NEGATIVE EIGENVALUE MESSAGES
                       0  ERROR MESSAGES



     JOB TIME SUMMARY
       USER TIME (SEC)      =   81.200    
       SYSTEM TIME (SEC)    =   11.000    
       TOTAL CPU TIME (SEC) =   92.200    
       WALLCLOCK TIME (SEC) =         77
