 Abaqus/Standard 2022                  DATE 19-Dez-2023 TIME 15:01:34
 SUMMARY OF JOB INFORMATION:
 STEP  INC ATT SEVERE EQUIL TOTAL  TOTAL      STEP       INC OF       DOF    IF
               DISCON ITERS ITERS  TIME/    TIME/LPF    TIME/LPF    MONITOR RIKS
               ITERS               FREQ
   1     1   1U    0     1     1  0.00       0.00       1.000     
   1     1   2     0     1     1  1.75e-05   1.75e-05   1.750e-05 
   1     2   1U    0     1     1  1.75e-05   1.75e-05   1.750e-05 
   1     2   2     0     1     1  2.31e-05   2.31e-05   5.595e-06 
   1     3   1     0     1     1  2.87e-05   2.87e-05   5.595e-06 
   1     4   1U    0     1     1  2.87e-05   2.87e-05   5.595e-06 
   1     4   2     0     1     1  3.31e-05   3.31e-05   4.410e-06 
   1     5   1     0     1     1  3.75e-05   3.75e-05   4.410e-06 
   1     6   1     0     1     1  4.19e-05   4.19e-05   4.410e-06 
   1     7   1     0     1     1  4.63e-05   4.63e-05   4.410e-06 
   1     8   1     0     1     1  5.07e-05   5.07e-05   4.410e-06 
   1     9   1     0     1     1  5.52e-05   5.52e-05   4.410e-06 
   1    10   1     0     1     1  6.06e-05   6.06e-05   5.423e-06 
   1    11   1     0     1     1  6.60e-05   6.60e-05   5.423e-06 
   1    12   1     0     1     1  7.25e-05   7.25e-05   6.539e-06 
   1    13   1     0     1     1  7.91e-05   7.91e-05   6.539e-06 
   1    14   1     0     1     1  8.72e-05   8.72e-05   8.174e-06 
   1    15   1     0     1     1  9.54e-05   9.54e-05   8.174e-06 
   1    16   1     0     1     1  0.000106   0.000106   1.022e-05 
   1    17   1     0     1     1  0.000118   0.000118   1.277e-05 
   1    18   1     0     1     1  0.000134   0.000134   1.596e-05 
   1    19   1     0     1     1  0.000154   0.000154   1.932e-05 
   1    20   1     0     1     1  0.000173   0.000173   1.932e-05 
   1    21   1     0     1     1  0.000197   0.000197   2.415e-05 
   1    22   1     0     1     1  0.000221   0.000221   2.415e-05 
   1    23   1     0     1     1  0.000252   0.000252   3.019e-05 
   1    24   1     0     1     1  0.000282   0.000282   3.019e-05 
   1    25   1     0     1     1  0.000319   0.000319   3.774e-05 
   1    26   1     0     1     1  0.000367   0.000367   4.718e-05 
   1    27   1     0     1     1  0.000414   0.000414   4.718e-05 
   1    28   1     0     1     1  0.000461   0.000461   4.718e-05 
   1    29   1     0     1     1  0.000508   0.000508   4.718e-05 
   1    30   1     0     1     1  0.000555   0.000555   4.718e-05 
   1    31   1     0     1     1  0.000603   0.000603   4.718e-05 
   1    32   1     0     1     1  0.000650   0.000650   4.718e-05 
   1    33   1     0     1     1  0.000697   0.000697   4.718e-05 
   1    34   1     0     1     1  0.000744   0.000744   4.718e-05 
   1    35   1     0     1     1  0.000791   0.000791   4.718e-05 
   1    36   1     0     1     1  0.000838   0.000838   4.718e-05 
   1    37   1     0     1     1  0.000886   0.000886   4.718e-05 
   1    38   1     0     1     1  0.000942   0.000942   5.633e-05 
   1    39   1     0     1     1  0.000998   0.000998   5.633e-05 
   1    40   1     0     1     1  0.00105    0.00105    5.633e-05 
   1    41   1     0     1     1  0.00111    0.00111    5.633e-05 
   1    42   1     0     1     1  0.00117    0.00117    5.633e-05 
   1    43   1     0     1     1  0.00123    0.00123    6.728e-05 
   1    44   1     0     1     1  0.00130    0.00130    6.728e-05 
   1    45   1     0     1     1  0.00137    0.00137    6.728e-05 
   1    46   1     0     1     1  0.00144    0.00144    6.728e-05 
   1    47   1     0     1     1  0.00152    0.00152    8.361e-05 
   1    48   1     0     1     1  0.00160    0.00160    8.361e-05 
   1    49   1     0     1     1  0.00169    0.00169    8.361e-05 
   1    50   1     0     1     1  0.00177    0.00177    8.361e-05 
   1    51   1     0     1     1  0.00188    0.00188    0.0001045 
   1    52   1     0     1     1  0.00198    0.00198    0.0001045 
   1    53   1     0     1     1  0.00210    0.00210    0.0001248 
   1    54   1     0     1     1  0.00223    0.00223    0.0001248 
   1    55   1     0     1     1  0.00235    0.00235    0.0001248 
   1    56   1     0     1     1  0.00251    0.00251    0.0001547 
   1    57   1     0     1     1  0.00266    0.00266    0.0001547 
   1    58   1     0     1     1  0.00285    0.00285    0.0001898 
   1    59   1     0     1     1  0.00304    0.00304    0.0001898 
   1    60   1     0     1     1  0.00323    0.00323    0.0001898 
   1    61   1     0     1     1  0.00347    0.00347    0.0002372 
   1    62   1     0     1     1  0.00376    0.00376    0.0002898 
   1    63   1     0     1     1  0.00405    0.00405    0.0002898 
   1    64   1     0     1     1  0.00434    0.00434    0.0002898 
   1    65   1     0     1     1  0.00470    0.00470    0.0003623 
   1    66   1     0     1     1  0.00515    0.00515    0.0004529 
   1    67   1     0     1     1  0.00561    0.00561    0.0004529 
   1    68   1     0     1     1  0.00617    0.00617    0.0005661 
   1    69   1     0     1     1  0.00674    0.00674    0.0005661 
   1    70   1     0     1     1  0.00745    0.00745    0.0007076 
   1    71   1     0     1     1  0.00833    0.00833    0.0008845 
   1    72   1     0     1     1  0.00944    0.00944    0.001106  
   1    73   1     0     1     1  0.0108     0.0108     0.001382  
   1    74   1     0     1     1  0.0125     0.0125     0.001728  
   1    75   1     0     1     1  0.0147     0.0147     0.002160  
   1    76   1     0     1     1  0.0169     0.0169     0.002160  
   1    77   1     0     1     1  0.0190     0.0190     0.002160  
   1    78   1U    0     1     1  0.0190     0.0190     0.002160  
   1    78   2     0     1     1  0.0208     0.0208     0.001753  
   1    79   1     0     1     1  0.0225     0.0225     0.001753  
   1    80   1     0     1     1  0.0243     0.0243     0.001753  
   1    81   1     0     1     1  0.0260     0.0260     0.001753  
   1    82   1     0     1     1  0.0278     0.0278     0.001753  
   1    83   1     0     1     1  0.0295     0.0295     0.001753  
   1    84   1     0     1     1  0.0313     0.0313     0.001753  
   1    85   1     0     1     1  0.0331     0.0331     0.001753  
   1    86   1     0     1     1  0.0348     0.0348     0.001753  
   1    87   1     0     1     1  0.0366     0.0366     0.001753  
   1    88   1     0     1     1  0.0383     0.0383     0.001753  
   1    89   1     0     1     1  0.0401     0.0401     0.001753  
   1    90   1     0     1     1  0.0418     0.0418     0.001753  
   1    91   1     0     1     1  0.0436     0.0436     0.001753  
   1    92   1     0     1     1  0.0457     0.0457     0.002173  
   1    93   1     0     1     1  0.0479     0.0479     0.002173  
   1    94   1     0     1     1  0.0501     0.0501     0.002173  
   1    95   1     0     1     1  0.0523     0.0523     0.002173  
   1    96   1     0     1     1  0.0544     0.0544     0.002173  
   1    97   1     0     1     1  0.0572     0.0572     0.002717  
   1    98   1     0     1     1  0.0599     0.0599     0.002717  
   1    99   1     0     1     1  0.0626     0.0626     0.002717  
   1   100   1     0     1     1  0.0659     0.0659     0.003299  
   1   101   1     0     1     1  0.0692     0.0692     0.003299  
   1   102   1     0     1     1  0.0725     0.0725     0.003299  
   1   103   1     0     1     1  0.0766     0.0766     0.004124  
   1   104   1     0     1     1  0.0807     0.0807     0.004124  
   1   105   1     0     1     1  0.0857     0.0857     0.004984  
   1   106   1     0     1     1  0.0907     0.0907     0.004984  
   1   107   1     0     1     1  0.0957     0.0957     0.004984  
   1   108   1     0     1     1  0.102      0.102      0.006230  
   1   109   1     0     1     1  0.108      0.108      0.006230  
   1   110   1     0     1     1  0.116      0.116      0.007788  
   1   111   1     0     1     1  0.124      0.124      0.007788  
   1   112   1     0     1     1  0.133      0.133      0.009735  
   1   113   1     0     1     1  0.143      0.143      0.009735  
   1   114   1     0     1     1  0.155      0.155      0.01217   
   1   115   1     0     1     1  0.168      0.168      0.01217   
   1   116   1     0     1     1  0.183      0.183      0.01521   
   1   117   1     0     1     1  0.202      0.202      0.01901   
   1   118   1     0     1     1  0.226      0.226      0.02377   
   1   119   1     0     1     1  0.249      0.249      0.02377   
   1   120   1     0     1     1  0.279      0.279      0.02971   
   1   121   1     0     1     1  0.309      0.309      0.02971   
   1   122   1     0     1     1  0.346      0.346      0.03713   
   1   123   1     0     1     1  0.392      0.392      0.04642   
   1   124   1     0     1     1  0.450      0.450      0.05802   
   1   125   1     0     1     1  0.523      0.523      0.07253   
   1   126   1     0     1     1  0.613      0.613      0.09066   
   1   127   1     0     1     1  0.727      0.727      0.1133    
   1   128   1     0     1     1  0.868      0.868      0.1417    
   1   129   1     0     1     1  1.00       1.00       0.1316    
   2     1   1U    0     1     1  1.00       0.00       1.000     
   2     1   2     0     1     1  1.00       8.76e-09   8.763e-09 
   2     2   1     0     1     1  1.00       1.75e-08   8.763e-09 
   2     3   1     0     1     1  1.00       2.63e-08   8.763e-09 
   2     4   1     0     1     1  1.00       3.72e-08   1.095e-08 
   2     5   1     0     1     1  1.00       5.09e-08   1.369e-08 
   2     6   1     0     1     1  1.00       6.81e-08   1.712e-08 
   2     7   1     0     1     1  1.00       8.94e-08   2.139e-08 
   2     8   1     0     1     1  1.00       1.16e-07   2.674e-08 
   2     9   1     0     1     1  1.00       1.50e-07   3.343e-08 
   2    10   1     0     1     1  1.00       1.91e-07   4.179e-08 
   2    11   1     0     1     1  1.00       2.44e-07   5.223e-08 
   2    12   1     0     1     1  1.00       3.09e-07   6.529e-08 
   2    13   1     0     1     1  1.00       3.91e-07   8.161e-08 
   2    14   1     0     1     1  1.00       4.93e-07   1.020e-07 
   2    15   1     0     1     1  1.00       6.20e-07   1.275e-07 
   2    16   1     0     1     1  1.00       7.79e-07   1.594e-07 
   2    17   1     0     1     1  1.00       9.79e-07   1.992e-07 
   2    18   1     0     1     1  1.00       1.23e-06   2.491e-07 
   2    19   1     0     1     1  1.00       1.54e-06   3.113e-07 
   2    20   1     0     1     1  1.00       1.93e-06   3.892e-07 
   2    21   1     0     1     1  1.00       2.41e-06   4.865e-07 
   2    22   1     0     1     1  1.00       3.02e-06   6.081e-07 
   2    23   1     0     1     1  1.00       3.78e-06   7.601e-07 
   2    24   1     0     1     1  1.00       4.73e-06   9.501e-07 
   2    25   1     0     1     1  1.00       5.92e-06   1.188e-06 
   2    26   1     0     1     1  1.00       7.41e-06   1.485e-06 
   2    27   1     0     1     1  1.00       9.26e-06   1.856e-06 
   2    28   1     0     1     1  1.00       1.16e-05   2.320e-06 
   2    29   1     0     1     1  1.00       1.45e-05   2.899e-06 
   2    30   1     0     1     1  1.00       1.81e-05   3.624e-06 
   2    31   1     0     1     1  1.00       2.26e-05   4.530e-06 
   2    32   1     0     1     1  1.00       2.83e-05   5.663e-06 
   2    33   1     0     1     1  1.00       3.54e-05   7.079e-06 
   2    34   1     0     1     1  1.00       4.42e-05   8.848e-06 
   2    35   1     0     1     1  1.00       5.53e-05   1.106e-05 
   2    36   1     0     1     1  1.00       6.91e-05   1.383e-05 
   2    37   1     0     1     1  1.00       8.64e-05   1.728e-05 
   2    38   1     0     1     1  1.00       0.000108   2.160e-05 
   2    39   1     0     1     1  1.00       0.000135   2.700e-05 
   2    40   1     0     1     1  1.00       0.000169   3.375e-05 
   2    41   1     0     1     1  1.00       0.000211   4.219e-05 
   2    42   1     0     1     1  1.00       0.000264   5.274e-05 
   2    43   1     0     1     1  1.00       0.000330   6.593e-05 
   2    44   1     0     1     1  1.00       0.000412   8.241e-05 
   2    45   1     0     1     1  1.00       0.000515   0.0001030 
   2    46   1     0     1     1  1.00       0.000644   0.0001288 
   2    47   1     0     1     1  1.00       0.000805   0.0001610 
   2    48   1     0     1     1  1.00       0.00101    0.0002012 
   2    49   1     0     1     1  1.00       0.00126    0.0002515 
   2    50   1     0     1     1  1.00       0.00157    0.0003144 
   2    51   1     0     1     1  1.00       0.00196    0.0003930 
   2    52   1     0     1     1  1.00       0.00246    0.0004912 
   2    53   1     0     1     1  1.00       0.00307    0.0006140 
   2    54   1     0     1     1  1.00       0.00384    0.0007675 
   2    55   1     0     1     1  1.00       0.00480    0.0009594 
   2    56   1     0     1     1  1.01       0.00600    0.001199  
   2    57   1     0     1     1  1.01       0.00720    0.001199  
   2    58   1     0     1     1  1.01       0.00839    0.001199  
   2    59   1     0     1     1  1.01       0.00959    0.001199  
   2    60   1     0     1     1  1.01       0.0111     0.001499  
   2    61   1     0     1     1  1.01       0.0130     0.001874  
   2    62   1     0     1     1  1.02       0.0153     0.002342  
   2    63   1     0     1     1  1.02       0.0177     0.002342  
   2    64   1     0     1     1  1.02       0.0200     0.002342  
   2    65   1     0     1     1  1.02       0.0223     0.002342  
   2    66   1     0     1     1  1.03       0.0253     0.002928  
   2    67   1     0     1     1  1.03       0.0289     0.003642  
   2    68   1     0     1     1  1.03       0.0325     0.003642  
   2    69   1     0     1     1  1.04       0.0362     0.003642  
   2    70   1     0     1     1  1.04       0.0398     0.003642  
   2    71   1     0     1     1  1.04       0.0435     0.003642  
   2    72   1     0     1     1  1.05       0.0471     0.003642  
   2    73   1     0     1     1  1.05       0.0508     0.003642  
   2    74   1     0     1     1  1.05       0.0544     0.003642  
   2    75   1     0     1     1  1.06       0.0580     0.003642  
   2    76   1     0     1     1  1.06       0.0617     0.003642  
   2    77   1     0     1     1  1.07       0.0653     0.003642  
   2    78   1     0     1     1  1.07       0.0690     0.003642  
   2    79   1     0     1     1  1.07       0.0726     0.003642  
   2    80   1     0     1     1  1.08       0.0763     0.003642  
   2    81   1     0     1     1  1.08       0.0799     0.003642  
   2    82   1     0     1     1  1.08       0.0835     0.003642  
   2    83   1     0     1     1  1.09       0.0879     0.004332  
   2    84   1     0     1     1  1.09       0.0922     0.004332  
   2    85   1     0     1     1  1.10       0.0965     0.004332  
   2    86   1     0     1     1  1.10       0.101      0.004332  
   2    87   1     0     1     1  1.11       0.105      0.004332  
   2    88   1     0     1     1  1.11       0.110      0.004332  
   2    89   1     0     1     1  1.11       0.115      0.005174  
   2    90   1     0     1     1  1.12       0.120      0.005174  
   2    91   1     0     1     1  1.13       0.125      0.005174  
   2    92   1     0     1     1  1.13       0.130      0.005174  
   2    93   1     0     1     1  1.14       0.135      0.005174  
   2    94   1     0     1     1  1.14       0.142      0.006468  
   2    95   1     0     1     1  1.15       0.148      0.006468  
   2    96   1     0     1     1  1.15       0.155      0.006468  
   2    97   1     0     1     1  1.16       0.161      0.006468  
   2    98   1     0     1     1  1.17       0.169      0.007861  
   2    99   1     0     1     1  1.18       0.177      0.007861  
   2   100   1     0     1     1  1.18       0.185      0.007861  
   2   101   1     0     1     1  1.19       0.193      0.007861  
   2   102   1     0     1     1  1.20       0.203      0.009827  
   2   103   1     0     1     1  1.21       0.212      0.009827  
   2   104   1     0     1     1  1.22       0.224      0.01191   
   2   105   1     0     1     1  1.24       0.236      0.01191   
   2   106   1     0     1     1  1.25       0.248      0.01191   
   2   107   1     0     1     1  1.26       0.260      0.01191   
   2   108   1     0     1     1  1.27       0.275      0.01489   
   2   109   1     0     1     1  1.29       0.294      0.01861   
   2   110   1     0     1     1  1.31       0.312      0.01861   
   2   111   1     0     1     1  1.33       0.331      0.01861   
   2   112   1     0     1     1  1.35       0.349      0.01861   
   2   113   1     0     1     1  1.37       0.373      0.02327   
   2   114   1     0     1     1  1.40       0.402      0.02908   
   2   115   1     0     1     1  1.44       0.438      0.03635   
   2   116   1     0     1     1  1.47       0.474      0.03635   
   2   117   1     0     1     1  1.51       0.511      0.03635   
   2   118   1     0     1     1  1.56       0.556      0.04544   
   2   119   1     0     1     1  1.61       0.613      0.05680   
   2   120   1     0     1     1  1.68       0.684      0.07100   
   2   121   1     0     1     1  1.77       0.773      0.08875   
   2   122   1     0     1     1  1.88       0.884      0.1109    
   2   123   1     0     1     1  1.99       0.995      0.1109    
   2   124   1     0     1     1  2.00       1.00       0.005373  
                          
 THE ANALYSIS HAS COMPLETED SUCCESSFULLY
