 Abaqus/Standard 2022                  DATE 19-Dez-2023 TIME 16:39:08
 SUMMARY OF JOB INFORMATION:
 STEP  INC ATT SEVERE EQUIL TOTAL  TOTAL      STEP       INC OF       DOF    IF
               DISCON ITERS ITERS  TIME/    TIME/LPF    TIME/LPF    MONITOR RIKS
               ITERS               FREQ
   1     1   1U    2     1     3  0.00       0.00       0.1000    
   1     1   2U    7     0     7  0.00       0.00       0.02500   
   1     1   3     0     3     3  0.00625    0.00625    0.006250  
   1     2   1     1     3     4  0.0125     0.0125     0.006250  
   1     3   1     0     4     4  0.0219     0.0219     0.009375  
   1     4   1     0     3     3  0.0359     0.0359     0.01406   
   1     5   1     0     4     4  0.0570     0.0570     0.02109   
   1     6   1     0     4     4  0.0887     0.0887     0.03164   
   1     7   1     0     6     6  0.136      0.136      0.04746   
   1     8   1     0     8     8  0.184      0.184      0.04746   
   1     9   1U    5     0     5  0.184      0.184      0.04746   
   1     9   2     0     6     6  0.195      0.195      0.01187   
   1    10   1U    3     5     8  0.195      0.195      0.01187   
   1    10   2     0     2     2  0.198      0.198      0.002966  
   1    11   1     0     2     2  0.201      0.201      0.002966  
   1    12   1     0     4     4  0.206      0.206      0.004449  
   1    13   1     0     7     7  0.213      0.213      0.006674  
   1    14   1     0     4     4  0.219      0.219      0.006674  
   1    15   1     0     4     4  0.226      0.226      0.006674  
   1    16   1U    0     5     5  0.226      0.226      0.01001   
   1    16   2     0     3     3  0.228      0.228      0.002503  
   1    17   1     0     3     3  0.232      0.232      0.003754  
   1    18   1     0     4     4  0.238      0.238      0.005631  
   1    19   1     3     2     5  0.246      0.246      0.008447  
   1    20   1U    6     3     9  0.246      0.246      0.01267   
   1    20   2     3     1     4  0.249      0.249      0.003168  
   1    21   1     2     4     6  0.254      0.254      0.004751  
   1    22   1     4     2     6  0.261      0.261      0.007127  
   1    23   1     1     5     6  0.272      0.272      0.01069   
   1    24   1     1     7     8  0.283      0.283      0.01069   
   1    25   1U    4     1     5  0.283      0.283      0.01069   
   1    25   2     1     2     3  0.285      0.285      0.002673  
   1    26   1     2     1     3  0.288      0.288      0.002673  
   1    27   1     3     1     4  0.292      0.292      0.004009  
   1    28   1     2     2     4  0.298      0.298      0.006014  
   1    29   1     3     1     4  0.307      0.307      0.009020  
   1    30   1     7     3    10  0.321      0.321      0.01353   
   1    31   1U    4     3     7  0.321      0.321      0.02030   
   1    31   2     1     5     6  0.326      0.326      0.005074  
   1    32   1     0     4     4  0.331      0.331      0.005074  
   1    33   1U    0     5     5  0.331      0.331      0.005074  
   1    33   2     0     2     2  0.332      0.332      0.001268  
   1    34   1     0     2     2  0.334      0.334      0.001903  
   1    35   1     0     4     4  0.337      0.337      0.002854  
   1    36   1U    2     1     3  0.337      0.337      0.004281  
   1    36   2     0     2     2  0.338      0.338      0.001070  
   1    37   1     0     4     4  0.339      0.339      0.001605  
   1    38   1U    6     2     8  0.339      0.339      0.002408  
   1    38   2     0     2     2  0.340      0.340      0.0006020 
   1    39   1     0     2     2  0.341      0.341      0.0009031 
   1    40   1     1     3     4  0.342      0.342      0.001355  
   1    41   1     1     6     7  0.344      0.344      0.002032  
   1    42   1     0     5     5  0.346      0.346      0.002032  
   1    43   1     0     4     4  0.348      0.348      0.002032  
   1    44   1     1     5     6  0.350      0.350      0.002032  
   1    45   1U    4     4     8  0.350      0.350      0.002032  
   1    45   2     0     3     3  0.351      0.351      0.0005080 
   1    46   1     0     2     2  0.351      0.351      0.0005080 
   1    47   1     1     1     2  0.352      0.352      0.0007620 
   1    48   1     0     4     4  0.353      0.353      0.001143  
   1    49   1     0     4     4  0.355      0.355      0.001714  
   1    50   1     0     4     4  0.358      0.358      0.002572  
   1    51   1     0     9     9  0.361      0.361      0.003857  
   1    52   1U    3     6     9  0.361      0.361      0.003857  
   1    52   2     0     2     2  0.362      0.362      0.0009643 
   1    53   1     0     2     2  0.363      0.363      0.0009643 
   1    54   1     0     4     4  0.365      0.365      0.001447  
   1    55   1     2     6     8  0.367      0.367      0.002170  
   1    56   1U    4     0     4  0.367      0.367      0.002170  
   1    56   2     1     2     3  0.368      0.368      0.0005424 
   1    57   1     1     1     2  0.368      0.368      0.0005424 
   1    58   1     0     2     2  0.369      0.369      0.0008137 
   1    59   1     0     4     4  0.370      0.370      0.001220  
   1    60   1     1     3     4  0.372      0.372      0.001831  
   1    61   1     1     5     6  0.375      0.375      0.002746  
   1    62   1     3     8    11  0.377      0.377      0.002746  
   1    63   1     0     8     8  0.380      0.380      0.002746  
   1    64   1     0     4     4  0.383      0.383      0.002746  
   1    65   1     0     4     4  0.386      0.386      0.002746  
   1    66   1     2     8    10  0.390      0.390      0.004119  
   1    67   1U    3     1     4  0.390      0.390      0.004119  
   1    67   2     0     4     4  0.391      0.391      0.001030  
   1    68   1     1     2     3  0.392      0.392      0.001030  
   1    69   1     1     3     4  0.393      0.393      0.001545  
   1    70   1     1     5     6  0.396      0.396      0.002317  
   1    71   1     1     5     6  0.398      0.398      0.002317  
   1    72   1     0     6     6  0.400      0.400      0.002317  
   1    73   1     0     6     6  0.403      0.403      0.002317  
   1    74   1     0     4     4  0.405      0.405      0.002317  
   1    75   1     0     4     4  0.407      0.407      0.002317  
   1    76   1     0     4     4  0.411      0.411      0.003476  
   1    77   1U    2     1     3  0.411      0.411      0.005213  
   1    77   2     0     4     4  0.412      0.412      0.001303  
   1    78   1     5     2     7  0.414      0.414      0.001955  
   1    79   1     5     1     6  0.417      0.417      0.002933  
   1    80   1U    4     0     4  0.417      0.417      0.004399  
   1    80   2     1     3     4  0.418      0.418      0.001100  
   1    81   1     1     3     4  0.420      0.420      0.001650  
   1    82   1     0     8     8  0.422      0.422      0.002474  
   1    83   1     0     5     5  0.425      0.425      0.002474  
   1    84   1     0     4     4  0.427      0.427      0.002474  
   1    85   1     0     4     4  0.430      0.430      0.002474  
   1    86   1U    4     0     4  0.430      0.430      0.003711  
   1    86   2     0     3     3  0.431      0.431      0.0009279 
   1    87   1     3     3     6  0.432      0.432      0.001392  
   1    88   1U    4     0     4  0.432      0.432      0.002088  
   1    88   2     3     2     5  0.432      0.432      0.0005219 
   1    89   1     1     2     3  0.433      0.433      0.0007829 
   1    90   1     1     3     4  0.434      0.434      0.001174  
   1    91   1     2     2     4  0.436      0.436      0.001761  
   1    92   1     3     3     6  0.439      0.439      0.002642  
   1    93   1U    5     2     7  0.439      0.439      0.003963  
   1    93   2     1     2     3  0.440      0.440      0.0009908 
   1    94   1     2     2     4  0.441      0.441      0.001486  
   1    95   1     3     3     6  0.444      0.444      0.002229  
   1    96   1     4     2     6  0.447      0.447      0.003344  
   1    97   1U    7     0     7  0.447      0.447      0.005016  
   1    97   2     3     4     7  0.448      0.448      0.001254  
   1    98   1     3     2     5  0.450      0.450      0.001881  
   1    99   1     1     4     5  0.453      0.453      0.002822  
   1   100   1     7     3    10  0.457      0.457      0.004232  
   1   101   1     6     3     9  0.463      0.463      0.006349  
   1   102   1U    4     0     4  0.463      0.463      0.009523  
   1   102   2     2     2     4  0.466      0.466      0.002381  
   1   103   1     1     4     5  0.469      0.469      0.003571  
   1   104   1     1     4     5  0.475      0.475      0.005357  
   1   105   1     2     4     6  0.483      0.483      0.008035  
   1   106   1     2     3     5  0.495      0.495      0.01205   
   1   107   1     4     2     6  0.513      0.513      0.01808   
   1   108   1     2     7     9  0.540      0.540      0.02712   
   1   109   1     1     4     5  0.567      0.567      0.02712   
   1   110   1     0     4     4  0.594      0.594      0.02712   
   1   111   1     2     3     5  0.635      0.635      0.04068   
   1   112   1U    2     1     3  0.635      0.635      0.06101   
   1   112   2     1     1     2  0.650      0.650      0.01525   
   1   113   1     2     2     4  0.673      0.673      0.02288   
   1   114   1     0     3     3  0.707      0.707      0.03432   
   1   115   1     2     4     6  0.759      0.759      0.05148   
   1   116   1U    2     1     3  0.759      0.759      0.07722   
   1   116   2U    5     0     5  0.759      0.759      0.01931   
   1   116   3     3     2     5  0.764      0.764      0.004826  
   1   117   1     1     1     2  0.771      0.771      0.007240  
   1   118   1U    8     0     8  0.771      0.771      0.01086   
   1   118   2     3     2     5  0.774      0.774      0.002715  
   1   119   1     5     1     6  0.778      0.778      0.004072  
   1   120   1     3     2     5  0.784      0.784      0.006108  
   1   121   1U    0     1     1  0.784      0.784      0.009163  
   1   121   2     3     2     5  0.786      0.786      0.002291  
   1   122   1U    4     0     4  0.786      0.786      0.003436  
   1   122   2     3     2     5  0.787      0.787      0.0008590 
   1   123   1     2     1     3  0.788      0.788      0.001288  
   1   124   1     6     2     8  0.790      0.790      0.001933  
   1   125   1U    4     0     4  0.790      0.790      0.002899  
   1   125   2     4     2     6  0.791      0.791      0.0007248 
   1   126   1     5     1     6  0.792      0.792      0.001087  
   1   127   1     6     2     8  0.794      0.794      0.001631  
   1   128   1U    2     1     3  0.794      0.794      0.002446  
   1   128   2     2     2     4  0.794      0.794      0.0006115 
   1   129   1     3     1     4  0.795      0.795      0.0009173 
   1   130   1     1     3     4  0.797      0.797      0.001376  
   1   131   1     2     3     5  0.799      0.799      0.002064  
   1   132   1U    6     0     6  0.799      0.799      0.003096  
   1   132   2     5     1     6  0.799      0.799      0.0007740 
   1   133   1     4     2     6  0.801      0.801      0.001161  
   1   134   1     7     2     9  0.802      0.802      0.001741  
   1   135   1     6     2     8  0.805      0.805      0.002612  
   1   136   1     5     2     7  0.809      0.809      0.003918  
   1   137   1U    0     1     1  0.809      0.809      0.005877  
   1   137   2     1     3     4  0.810      0.810      0.001469  
   1   138   1     6     2     8  0.812      0.812      0.002204  
   1   139   1     7     2     9  0.816      0.816      0.003306  
   1   140   1U    2     1     3  0.816      0.816      0.004959  
   1   140   2     1     3     4  0.817      0.817      0.001240  
   1   141   1     3     2     5  0.819      0.819      0.001860  
   1   142   1     8     0     8  0.822      0.822      0.002789  
   1   143   1     4     1     5  0.826      0.826      0.004184  
   1   144   1U    4     0     4  0.826      0.826      0.006276  
   1   144   2     3     2     5  0.827      0.827      0.001569  
   1   145   1     3     2     5  0.830      0.830      0.002354  
   1   146   1     4     1     5  0.833      0.833      0.003530  
   1   147   1     4     1     5  0.839      0.839      0.005296  
   1   148   1     3     5     8  0.847      0.847      0.007943  
   1   149   1     3     1     4  0.854      0.854      0.007943  
   1   150   1     6     2     8  0.862      0.862      0.007943  
   1   151   1     5     3     8  0.874      0.874      0.01191   
   1   152   1     2     4     6  0.892      0.892      0.01787   
   1   153   1     4     2     6  0.919      0.919      0.02681   
   1   154   1     0     2     2  0.959      0.959      0.04021   
   1   155   1U    7     5    12  0.959      0.959      0.04077   
   1   155   2     1     1     2  0.969      0.969      0.01019   
   1   156   1     1     1     2  0.985      0.985      0.01529   
   1   157   1     0     2     2  1.00       1.00       0.01529   
   2     1   1U    0     1     1  1.00       0.00       1.000     
   2     1   2U    0     1     1  1.00       0.00       0.2500    
   2     1   3U    3     1     4  1.00       0.00       0.06250   
   2     1   4     1     1     2  1.02       0.0156     0.01562   
   2     2   1    10     2    12  1.03       0.0312     0.01562   
   2     3   1U    2     1     3  1.03       0.0312     0.02344   
   2     3   2     5     1     6  1.04       0.0371     0.005859  
   2     4   1     4     1     5  1.05       0.0459     0.008789  
   2     5   1     3     1     4  1.06       0.0591     0.01318   
   2     6   1     2     2     4  1.08       0.0789     0.01978   
   2     7   1U    5     1     6  1.08       0.0789     0.02966   
   2     7   2U    2     1     3  1.08       0.0789     0.007416  
   2     7   3     4     2     6  1.08       0.0807     0.001854  
   2     8   1     4     1     5  1.08       0.0835     0.002781  
   2     9   1     3     1     4  1.09       0.0877     0.004171  
   2    10   1     3     2     5  1.09       0.0939     0.006257  
   2    11   1     0     2     2  1.10       0.103      0.009386  
   2    12   1U    5     0     5  1.10       0.103      0.01408   
   2    12   2     1     1     2  1.11       0.107      0.003520  
   2    13   1     1     1     2  1.11       0.112      0.005279  
   2    14   1     9     1    10  1.12       0.120      0.007919  
   2    15   1     3     1     4  1.13       0.132      0.01188   
   2    16   1U    5     0     5  1.13       0.132      0.01782   
   2    16   2     1     2     3  1.14       0.136      0.004454  
   2    17   1     5     1     6  1.14       0.143      0.006682  
   2    18   1U    5     0     5  1.14       0.143      0.01002   
   2    18   2     5     1     6  1.15       0.146      0.002506  
   2    19   1     3     1     4  1.15       0.149      0.003758  
   2    20   1     3     1     4  1.15       0.155      0.005638  
   2    21   1     0     2     2  1.16       0.163      0.008457  
   2    22   1U    5     0     5  1.16       0.163      0.01268   
   2    22   2     0     2     2  1.17       0.167      0.003171  
   2    23   1U    5     0     5  1.17       0.167      0.004757  
   2    23   2     1     2     3  1.17       0.168      0.001189  
   2    24   1     1     2     3  1.17       0.170      0.001784  
   2    25   1     0     2     2  1.17       0.172      0.002676  
   2    26   1     1     1     2  1.18       0.176      0.004014  
   2    27   1     0     2     2  1.18       0.182      0.006020  
   2    28   1     2     1     3  1.19       0.191      0.009031  
   2    29   1     0     2     2  1.20       0.205      0.01355   
   2    30   1     8     2    10  1.23       0.225      0.02032   
   2    31   1U    5     0     5  1.23       0.225      0.03048   
   2    31   2     6     1     7  1.23       0.233      0.007620  
   2    32   1U    5     0     5  1.23       0.233      0.01143   
   2    32   2     1     1     2  1.24       0.236      0.002857  
   2    33   1     0     2     2  1.24       0.240      0.004286  
   2    34   1     8     1     9  1.25       0.246      0.006429  
   2    35   1     2     1     3  1.26       0.256      0.009643  
   2    36   1U    4     0     4  1.26       0.256      0.01447   
   2    36   2     2     2     4  1.26       0.260      0.003616  
   2    37   1     0     2     2  1.27       0.265      0.005424  
   2    38   1U    4     0     4  1.27       0.265      0.008137  
   2    38   2     3     2     5  1.27       0.267      0.002034  
   2    39   1     0     2     2  1.27       0.270      0.003051  
   2    40   1     0     2     2  1.27       0.275      0.004577  
   2    41   1     1     1     2  1.28       0.282      0.006865  
   2    42   1     5     1     6  1.29       0.292      0.01030   
   2    43   1     3     6     9  1.31       0.307      0.01545   
   2    44   1     1     4     5  1.32       0.323      0.01545   
   2    45   1     1     3     4  1.34       0.338      0.01545   
   2    46   1     0     4     4  1.36       0.361      0.02317   
   2    47   1U    0     1     1  1.36       0.361      0.03476   
   2    47   2     0     2     2  1.37       0.370      0.008689  
   2    48   1     0     3     3  1.38       0.383      0.01303   
   2    49   1U    4     0     4  1.38       0.383      0.01955   
   2    49   2     4     2     6  1.39       0.388      0.004888  
   2    50   1     0     2     2  1.40       0.395      0.007331  
   2    51   1U    2     1     3  1.40       0.395      0.01100   
   2    51   2     4     2     6  1.40       0.398      0.002749  
   2    52   1U    4     0     4  1.40       0.398      0.004124  
   2    52   2     0     2     2  1.40       0.399      0.001031  
   2    53   1     0     2     2  1.40       0.401      0.001546  
   2    54   1     6     0     6  1.40       0.403      0.002320  
   2    55   1     2     1     3  1.41       0.406      0.003479  
   2    56   1     4     2     6  1.41       0.412      0.005219  
   2    57   1U    5     0     5  1.41       0.412      0.007829  
   2    57   2     0     2     2  1.41       0.414      0.001957  
   2    58   1     5     1     6  1.42       0.417      0.002936  
   2    59   1U    5     0     5  1.42       0.417      0.004404  
   2    59   2     1     1     2  1.42       0.418      0.001101  
   2    60   1     1     1     2  1.42       0.419      0.001651  
   2    61   1U    7     0     7  1.42       0.419      0.002477  
   2    61   2     1     2     3  1.42       0.420      0.0006193 
   2    62   1     2     2     4  1.42       0.421      0.0009289 
   2    63   1     1     1     2  1.42       0.422      0.001393  
   2    64   1     0     2     2  1.42       0.424      0.002090  
   2    65   1     1     1     2  1.43       0.427      0.003135  
   2    66   1U    4     0     4  1.43       0.427      0.004703  
   2    66   2     0     2     2  1.43       0.429      0.001176  
   2    67   1     1     1     2  1.43       0.430      0.001763  
   2    68   1     0     2     2  1.43       0.433      0.002645  
   2    69   1     2     1     3  1.44       0.437      0.003968  
   2    70   1     1     1     2  1.44       0.443      0.005952  
   2    71   1U    4     0     4  1.44       0.443      0.008928  
   2    71   2     1     1     2  1.45       0.445      0.002232  
   2    72   1     0     2     2  1.45       0.449      0.003348  
   2    73   1     8     2    10  1.45       0.454      0.005022  
   2    74   1     0     4     4  1.46       0.461      0.007533  
   2    75   1     2     2     4  1.47       0.472      0.01130   
   2    76   1U    4     1     5  1.47       0.472      0.01695   
   2    76   2     1     2     3  1.48       0.477      0.004237  
   2    77   1     1     2     3  1.48       0.483      0.006356  
   2    78   1U    4     0     4  1.48       0.483      0.009534  
   2    78   2     0     2     2  1.49       0.485      0.002383  
   2    79   1     1     1     2  1.49       0.489      0.003575  
   2    80   1U    5     2     7  1.49       0.489      0.005363  
   2    80   2     0     1     1  1.49       0.490      0.001341  
   2    81   1     0     2     2  1.49       0.492      0.002011  
   2    82   1     0     2     2  1.50       0.495      0.003016  
   2    83   1U    5     2     7  1.50       0.495      0.004525  
   2    83   2     0     2     2  1.50       0.496      0.001131  
   2    84   1     0     2     2  1.50       0.498      0.001697  
   2    85   1     0     2     2  1.50       0.501      0.002545  
   2    86   1U    4     0     4  1.50       0.501      0.003818  
   2    86   2     0     2     2  1.50       0.502      0.0009544 
   2    87   1     0     1     1  1.50       0.503      0.001432  
   2    88   1     3     3     6  1.51       0.505      0.002147  
   2    89   1     0     2     2  1.51       0.508      0.003221  
   2    90   1     0     2     2  1.51       0.513      0.004832  
   2    91   1U    4     0     4  1.51       0.513      0.007248  
   2    91   2     0     2     2  1.52       0.515      0.001812  
   2    92   1     1     1     2  1.52       0.518      0.002718  
   2    93   1U    6     1     7  1.52       0.518      0.004077  
   2    93   2     1     2     3  1.52       0.519      0.001019  
   2    94   1     1     3     4  1.52       0.520      0.001529  
   2    95   1     0     2     2  1.52       0.523      0.002293  
   2    96   1     0     2     2  1.53       0.526      0.003440  
   2    97   1U    5     2     7  1.53       0.526      0.005160  
   2    97   2     0     1     1  1.53       0.527      0.001290  
   2    98   1     0     2     2  1.53       0.529      0.001935  
   2    99   1     0     2     2  1.53       0.532      0.002902  
   2   100   1U    5     2     7  1.53       0.532      0.004354  
   2   100   2     0     1     1  1.53       0.533      0.001088  
   2   101   1     0     2     2  1.53       0.535      0.001633  
   2   102   1     0     2     2  1.54       0.537      0.002449  
   2   103   1     0     2     2  1.54       0.541      0.003673  
   2   104   1     0     2     2  1.55       0.547      0.005510  
   2   105   1     0     2     2  1.55       0.555      0.008265  
   2   106   1U    4     0     4  1.55       0.555      0.01240   
   2   106   2     0     2     2  1.56       0.558      0.003099  
   2   107   1     0     2     2  1.56       0.563      0.004649  
   2   108   1U    4     0     4  1.56       0.563      0.006974  
   2   108   2     0     2     2  1.56       0.564      0.001743  
   2   109   1U    4     0     4  1.56       0.564      0.002615  
   2   109   2     1     2     3  1.56       0.565      0.0006538 
   2   110   1     2     2     4  1.57       0.566      0.0009806 
   2   111   1     1     1     2  1.57       0.567      0.001471  
   2   112   1     1     1     2  1.57       0.570      0.002206  
   2   113   1     0     2     2  1.57       0.573      0.003310  
   2   114   1     2     1     3  1.58       0.578      0.004965  
   2   115   1U    5     0     5  1.58       0.578      0.007447  
   2   115   2     0     2     2  1.58       0.580      0.001862  
   2   116   1     0     2     2  1.58       0.583      0.002793  
   2   117   1    11     1    12  1.59       0.587      0.004189  
   2   118   1     8     1     9  1.59       0.593      0.006283  
   2   119   1U    6     0     6  1.59       0.593      0.009425  
   2   119   2     6     0     6  1.60       0.595      0.002356  
   2   120   1U    4     0     4  1.60       0.595      0.003534  
   2   120   2     2     1     3  1.60       0.596      0.0008836 
   2   121   1     1     1     2  1.60       0.598      0.001325  
   2   122   1U    4     0     4  1.60       0.598      0.001988  
   2   122   2     1     2     3  1.60       0.598      0.0004970 
   2   123   1     0     2     2  1.60       0.599      0.0007455 
   2   124   1     0     2     2  1.60       0.600      0.001118  
   2   125   1     0     2     2  1.60       0.602      0.001677  
   2   126   1     5     1     6  1.60       0.604      0.002516  
                          
 THE ANALYSIS HAS NOT BEEN COMPLETED
