1

   Abaqus 2022                                  Date 19-Dez-2023   Time 15:41:08
   For use by MONTANUNIVERSITAT LEOBEN under license from Dassault Systemes or its subsidiary.

                                                                                 
                                                                                 
 STEP    1     INCREMENT     1     STEP TIME    0.00    


                        S T E P       1     D Y N A M I C   A N A L Y S I S - I M P L I C I T  I N T E G R A T I O N


                                                                                          

          DYNAMIC APPLICATION PACKED SCHEME IS                 MODERATE DISSIPATION
          HILBER-HUGHES-TAYLOR (HHT) TIME INTEGRATOR IS USED

     AUTOMATIC TIME CONTROL WITH -
          A SUGGESTED INITIAL TIME INCREMENT OF                0.100    
          AND A TOTAL TIME PERIOD OF                            1.00    
          THE MINIMUM TIME INCREMENT ALLOWED IS                1.000E-10
          THE MAXIMUM TIME INCREMENT ALLOWED IS                0.100    

          THE HALF-INCREMENT RESIDUALS WILL NOT BE CALCULATED

          INITIAL ACCELERATIONS WILL NOT BE CALCULATED

          HILBER-HUGHES-TAYLOR METHOD PARAMETERS:  ALPHA   IS  -0.414214    
                                                   BETA    IS   0.500000    
                                                   GAMMA   IS   0.914214    
          CONTACT IMPACT/RELEASE COMPUTATIONS ARE SKIPPED
          AGGRESSIVE   TIME INCREMENTATION IS USED
          STEP AMPLITUDE IS                                    STEP

 CONVERGENCE TOLERANCE PARAMETERS FOR FORCE    
     CRITERION FOR RESIDUAL FORCE     FOR A NONLINEAR PROBLEM          5.000E-03
     CRITERION FOR DISP.    CORRECTION IN A NONLINEAR PROBLEM          1.000E-02
     INITIAL VALUE OF TIME AVERAGE FORCE                               1.000E-02
     AVERAGE FORCE     IS TIME AVERAGE FORCE    
     ALTERNATE CRIT. FOR RESIDUAL FORCE     FOR A NONLINEAR PROBLEM    2.000E-02
     CRITERION FOR ZERO FORCE     RELATIVE TO TIME AVRG. FORCE         1.000E-05
     CRITERION FOR RESIDUAL FORCE     WHEN THERE IS ZERO FLUX          1.000E-05
     CRITERION FOR DISP.    CORRECTION WHEN THERE IS ZERO FLUX         1.000E-03
     CRITERION FOR RESIDUAL FORCE     FOR A LINEAR INCREMENT           1.000E-08
     FIELD CONVERSION RATIO                                             1.00    
     CRITERION FOR ZERO FORCE     REL. TO TIME AVRG. MAX. FORCE        1.000E-05
     CRITERION FOR ZERO DISP.    RELATIVE TO CHARACTERISTIC LENGTH     1.000E-08

 CONVERGENCE TOLERANCE PARAMETERS FOR MOMENT   
     CRITERION FOR RESIDUAL MOMENT    FOR A NONLINEAR PROBLEM          5.000E-03
     CRITERION FOR ROTATION CORRECTION IN A NONLINEAR PROBLEM          1.000E-02
     INITIAL VALUE OF TIME AVERAGE MOMENT                              1.000E-02
     AVERAGE MOMENT    IS TIME AVERAGE MOMENT   
     ALTERNATE CRIT. FOR RESIDUAL MOMENT    FOR A NONLINEAR PROBLEM    2.000E-02
     CRITERION FOR ZERO MOMENT    RELATIVE TO TIME AVRG. MOMENT        1.000E-05
     CRITERION FOR RESIDUAL MOMENT    WHEN THERE IS ZERO FLUX          1.000E-05
     CRITERION FOR ROTATION CORRECTION WHEN THERE IS ZERO FLUX         1.000E-03
     CRITERION FOR RESIDUAL MOMENT    FOR A LINEAR INCREMENT           1.000E-08
     FIELD CONVERSION RATIO                                             1.00    
     CRITERION FOR ZERO MOMENT    REL. TO TIME AVRG. MAX. MOMENT       1.000E-05

     VOLUMETRIC STRAIN COMPATIBILITY TOLERANCE FOR HYBRID SOLIDS       1.000E-05
     AXIAL STRAIN COMPATIBILITY TOLERANCE FOR HYBRID BEAMS             1.000E-05
     TRANS. SHEAR STRAIN COMPATIBILITY TOLERANCE FOR HYBRID BEAMS      1.000E-05
     SOFT CONTACT CONSTRAINT COMPATIBILITY TOLERANCE FOR P>P0          5.000E-03
     SOFT CONTACT CONSTRAINT COMPATIBILITY TOLERANCE FOR P=0.0         0.100    
     CONTACT FORCE ERROR TOLERANCE FOR CONVERT SDI=YES                 1.00    
     DISPLACEMENT COMPATIBILITY TOLERANCE FOR DCOUP ELEMENTS           1.000E-05
     ROTATION COMPATIBILITY TOLERANCE FOR DCOUP ELEMENTS               1.000E-05

 EQUILIBRIUM WILL BE CHECKED FOR SEVERE DISCONTINUITY ITERATIONS

 TIME INCREMENTATION CONTROL PARAMETERS:
     FIRST EQUILIBRIUM ITERATION FOR CONSECUTIVE DIVERGENCE CHECK              4
     EQUILIBRIUM ITERATION AT WHICH LOG. CONVERGENCE RATE CHECK BEGINS         8
     EQUILIBRIUM ITERATION AFTER WHICH ALTERNATE RESIDUAL IS USED              9
     MAXIMUM EQUILIBRIUM ITERATIONS ALLOWED                                   16
     EQUILIBRIUM ITERATION COUNT FOR CUT-BACK IN NEXT INCREMENT               10
     MAXIMUM EQUILIB. ITERS IN TWO INCREMENTS FOR TIME INCREMENT INCREASE      4
     MAXIMUM ITERATIONS FOR SEVERE DISCONTINUITIES                            50
     MAXIMUM ATTEMPTS ALLOWED IN AN INCREMENT                                  5
     MAXIMUM DISCON. ITERS IN TWO INCREMENTS FOR TIME INCREMENT INCREASE      50
     MAXIMUM CONTACT AUGMENTATIONS FOR *SURFACE BEHAVIOR,AUGMENTED LAGRANGE   50
     CUT-BACK FACTOR AFTER DIVERGENCE                                 0.2500    
     CUT-BACK FACTOR FOR TOO SLOW CONVERGENCE                         0.5000    
     CUT-BACK FACTOR AFTER TOO MANY EQUILIBRIUM ITERATIONS            0.7500    
     CUT-BACK FACTOR AFTER TOO MANY SEVERE DISCONTINUITY ITERATIONS   0.2500    
     CUT-BACK FACTOR AFTER PROBLEMS IN ELEMENT ASSEMBLY               0.2500    
     INCREASE FACTOR AFTER TWO INCREMENTS THAT CONVERGE QUICKLY        1.500    
     MAX. TIME INCREMENT INCREASE FACTOR ALLOWED                       1.500    
     MAX. TIME INCREMENT INCREASE FACTOR ALLOWED (DYNAMICS)            1.250    
     MAX. TIME INCREMENT INCREASE FACTOR ALLOWED (DIFFUSION)           2.000    
     MINIMUM TIME INCREMENT RATIO FOR EXTRAPOLATION TO OCCUR          0.1000    
     MAX. RATIO OF TIME INCREMENT TO STABILITY LIMIT                   1.000    
     FRACTION OF STABILITY LIMIT FOR NEW TIME INCREMENT               0.9500    
     TIME INCREMENT INCREASE FACTOR BEFORE A TIME POINT                1.000    

 CONTACT CONTROLS APPLIED TO ALL CONTACT PAIRS:
     GLOBAL STABILIZATION CONTROL IS NOT USED
     RELATIVE PENETRATION TOLERANCE FOR AUGMENTED LAGRANGE CONTACT:
          FINITE-SLIDING SURFACE-TO-SURFACE                            5.000E-02
          OTHERWISE                                                    1.000E-03

          PRINT OF INCREMENT NUMBER, TIME, ETC., EVERY    1  INCREMENTS

     THE MAXIMUM NUMBER OF INCREMENTS IN THIS STEP IS                   10000

          LARGE DISPLACEMENT THEORY WILL BE USED

     LINEAR EXTRAPOLATION WILL BE USED

     CHARACTERISTIC ELEMENT LENGTH      6.50    

     DETAILS REGARDING ACTUAL SOLUTION WAVEFRONT REQUESTED

     DETAILED OUTPUT OF DIAGNOSTICS TO DATABASE REQUESTED

     PRINT OF INCREMENT NUMBER, TIME, ETC., TO THE MESSAGE FILE EVERY     1  INCREMENTS

     ELEMENT OPERATIONS WILL BE CARRIED OUT IN PARALLEL USING   2 THREADS ON 1 DOMAIN

     PARALLEL CONTACT TRACKING ENABLED


     COLLECTING MODEL CONSTRAINT INFORMATION FOR OVERCONSTRAINT CHECKS

     COLLECTING STEP CONSTRAINT INFORMATION FOR OVERCONSTRAINT CHECKS

 ***WARNING: AT LEAST ONE OF THE NODES OF CONNECTOR ELEMENT 1 (ASSEMBLY) DOES 
             NOT HAVE ANY MASS ASSOCIATED WITH IT. THIS COULD LEAD TO EQUATION 
             SOLVER ISSUES (ZERO PIVOTS, NUMERICAL SINGULARITIES, etc.) AND 
             HENCE TO INCORRECT SOLUTIONS WHEN THE CONNECTOR ELEMENT IS 
             ENFORCING KINEMATIC CONSTRAINTS (FROM EITHER INTRINSIC, CONNECTOR 
             STOP/LOCK, or CONNECTOR MOTION). PLEASE ATTACH THE CONNECTOR NODES 
             TO ELEMENTS FOR WHICH MASS IS DEFINED (SUCH AS ELEMENTS TYPE MASS 
             WITH A SMALL MASS) TO RESOLVE THE PROBLEM.

 ***WARNING: AT LEAST ONE OF THE NODES OF CONNECTOR ELEMENT 1 (ASSEMBLY) DOES 
             NOT HAVE ANY ROTARY INERTIA ASSOCIATED WITH IT. THIS COULD LEAD TO 
             EQUATION SOLVER ISSUES (ZERO PIVOTS, NUMERICAL SINGULARITIES, 
             etc.) AND HENCE TO INCORRECT SOLUTIONS WHEN THE CONNECTOR ELEMENT 
             IS ENFORCING KINEMATIC CONSTRAINTS (FROM EITHER INTRINSIC, 
             CONNECTOR STOP/LOCK, or CONNECTOR MOTION). PLEASE ATTACH THE 
             CONNECTOR NODES TO ELEMENTS FOR WHICH ROTARY INERTIA IS DEFINED 
             (SUCH AS ELEMENTS TYPE ROTARYI) TO RESOLVE THE PROBLEM.


  INCREMENT     1 STARTS. ATTEMPT NUMBER  1, TIME INCREMENT  0.100    
 
     INITIAL ELEMENT LOAD BALANCE
            DOMAIN    1     THREAD    NUMBER OF ELEMENTS
                              1            296
                              2            361

 ***WARNING: THERE ARE 2 UNCONNECTED REGIONS IN THE MODEL.

 ***NOTE: SFM TYPE SURFACE ELEMENTS USED TO DEFINE CONTACT SURFACES NOT PART OF 
          A RIGID BODY MAY INCREASE THE NUMBER OR UNCONNECTED REGIONS REPORTED.
 
	SYMMETRIC DIRECT SPARSE SOLVER RUNNING ON
 	1 HOST:        1 MPI RANK  x 2 THREADS
 	NUMBER OF EQUATIONS:     2778
 	NUMBER OF RHS:           1
 	NUMBER OF FLOPS:         3.396e+07

     CHECK POINT   START OF SOLVER    

     CHECK POINT  END OF SOLVER       

       ELAPSED USER TIME (SEC)      =  0.10000    
       ELAPSED SYSTEM TIME (SEC)    =  0.10000    
       ELAPSED TOTAL CPU TIME (SEC) =  0.20000    
       ELAPSED WALLCLOCK TIME (SEC) =          0

                   74 SEVERE DISCONTINUITIES OCCURRED DURING THIS ITERATION.
                   74 POINTS CHANGED FROM OPEN TO CLOSED

               CONVERGENCE CHECKS FOR SEVERE DISCONTINUITY ITERATION     1

   MAX. PENETRATION ERROR 7.54668     AT NODE PART-2-1.1 OF CONTACT PAIR 
   (GENERAL_CONTACT_FACES_2,GENERAL_CONTACT_FACES_1)
   MAX. CONTACT FORCE ERROR 296.621       AT NODE PART-2-1.89 OF CONTACT PAIR 
   (GENERAL_CONTACT_EDGES_2,GENERAL_CONTACT_FACES_1)
          PENETRATION ERROR TOO LARGE COMPARED TO DISPLACEMENT INCREMENT.

 AVERAGE FORCE                      0.927       TIME AVG. FORCE       0.927    
 LARGEST RESIDUAL FORCE              8.66       AT NODE         33   DOF  3
   INSTANCE: PART-1-1                                                                        
 LARGEST INCREMENT OF DISP.         -8.04       AT NODE          4   DOF  3
   INSTANCE: PART-2-1                                                                        
 LARGEST CORRECTION TO DISP.        -8.04       AT NODE          4   DOF  3
   INSTANCE: PART-2-1                                                                        
          FORCE     EQUILIBRIUM NOT ACHIEVED WITHIN TOLERANCE.
 

 ***WARNING: THE AVERAGE FORCE USED TO ENFORCE CONTACT CONSTRAINTS AT NODE 
             PART-2-1.89 IS 12.5295E+03  TIMES LARGER THAN THE AVERAGE AT THE 
             OTHER NODES IN THE MODEL.

 AVERAGE MOMENT                     6.121E-04   TIME AVG. MOMENT      6.121E-04
 LARGEST RESIDUAL MOMENT            1.775E-05   AT NODE         65   DOF  5
   INSTANCE: PART-2-1                                                                        
 LARGEST INCREMENT OF ROTATION     -1.232E-03   AT NODE         11   DOF  5
   INSTANCE: PART-2-1                                                                        
 LARGEST CORRECTION TO ROTATION    -1.232E-03   AT NODE         11   DOF  5
   INSTANCE: PART-2-1                                                                        
          MOMENT    EQUILIBRIUM NOT ACHIEVED WITHIN TOLERANCE.
 
	SYMMETRIC DIRECT SPARSE SOLVER RUNNING ON
 	1 HOST:        1 MPI RANK  x 2 THREADS
 	NUMBER OF EQUATIONS:     2778
 	NUMBER OF RHS:           1
 	NUMBER OF FLOPS:         3.734e+07

     CHECK POINT   START OF SOLVER    

     CHECK POINT  END OF SOLVER       

       ELAPSED USER TIME (SEC)      =   0.0000    
       ELAPSED SYSTEM TIME (SEC)    =   0.0000    
       ELAPSED TOTAL CPU TIME (SEC) =   0.0000    
       ELAPSED WALLCLOCK TIME (SEC) =          1
 

 ***WARNING: THE SYSTEM MATRIX HAS 1 NEGATIVE EIGENVALUES.

     NEGATIVE EIGENVALUES MEAN THAT THE SYSTEM MATRIX IS NOT 
     POSITIVE DEFINITE:
     FOR EXAMPLE, A BIFURCATION (BUCKLING) LOAD MAY HAVE BEEN EXCEEDED.

 ***WARNING: CONVERGENCE JUDGED UNLIKELY.  INCREMENT WILL BE ATTEMPTED AGAIN 
             WITH A TIME INCREMENT OF 2.50000E-02


  INCREMENT     1 STARTS. ATTEMPT NUMBER  2, TIME INCREMENT  2.500E-02
 
	SYMMETRIC DIRECT SPARSE SOLVER RUNNING ON
 	1 HOST:        1 MPI RANK  x 2 THREADS
 	NUMBER OF EQUATIONS:     2778
 	NUMBER OF RHS:           1
 	NUMBER OF FLOPS:         3.622e+07

     CHECK POINT   START OF SOLVER    

     CHECK POINT  END OF SOLVER       

       ELAPSED USER TIME (SEC)      =   0.0000    
       ELAPSED SYSTEM TIME (SEC)    =   0.0000    
       ELAPSED TOTAL CPU TIME (SEC) =   0.0000    
       ELAPSED WALLCLOCK TIME (SEC) =          0

                   44 SEVERE DISCONTINUITIES OCCURRED DURING THIS ITERATION.
                   44 POINTS CHANGED FROM OPEN TO CLOSED

               CONVERGENCE CHECKS FOR SEVERE DISCONTINUITY ITERATION     1

   MAX. PENETRATION ERROR 498.594E-03   AT NODE PART-2-1.56 OF CONTACT PAIR 
   (GENERAL_CONTACT_EDGES_2,GENERAL_CONTACT_FACES_1)
   MAX. CONTACT FORCE ERROR 42.0546      AT NODE PART-2-1.56 OF CONTACT PAIR 
   (GENERAL_CONTACT_EDGES_2,GENERAL_CONTACT_FACES_1)
          PENETRATION ERROR TOO LARGE COMPARED TO DISPLACEMENT INCREMENT.

 AVERAGE FORCE                      7.319E-02   TIME AVG. FORCE       7.319E-02
 LARGEST RESIDUAL FORCE             0.945       AT NODE         99   DOF  3
   INSTANCE: PART-1-1                                                                        
 LARGEST INCREMENT OF DISP.         -2.00       AT NODE         11   DOF  3
   INSTANCE: PART-1-2                                                                        
 LARGEST CORRECTION TO DISP.        -2.00       AT NODE         11   DOF  3
   INSTANCE: PART-1-2                                                                        
          FORCE     EQUILIBRIUM NOT ACHIEVED WITHIN TOLERANCE.
 

 ***WARNING: THE AVERAGE FORCE USED TO ENFORCE CONTACT CONSTRAINTS AT NODE 
             PART-2-1.56 IS 16.0303E+03  TIMES LARGER THAN THE AVERAGE AT THE 
             OTHER NODES IN THE MODEL.

 AVERAGE MOMENT                     9.504E-05   TIME AVG. MOMENT      9.504E-05
 LARGEST RESIDUAL MOMENT            2.339E-07   AT NODE         65   DOF  5
   INSTANCE: PART-2-1                                                                        
 LARGEST INCREMENT OF ROTATION      1.427E-04   AT NODE        121   DOF  5
   INSTANCE: PART-2-1                                                                        
 LARGEST CORRECTION TO ROTATION     1.427E-04   AT NODE        121   DOF  5
   INSTANCE: PART-2-1                                                                        
          ROTATION CORRECTION TOO LARGE COMPARED TO ROTATION INCREMENT
 
	SYMMETRIC DIRECT SPARSE SOLVER RUNNING ON
 	1 HOST:        1 MPI RANK  x 2 THREADS
 	NUMBER OF EQUATIONS:     2778
 	NUMBER OF RHS:           1
 	NUMBER OF FLOPS:         3.624e+07

     CHECK POINT   START OF SOLVER    

     CHECK POINT  END OF SOLVER       

       ELAPSED USER TIME (SEC)      =   0.0000    
       ELAPSED SYSTEM TIME (SEC)    =   0.0000    
       ELAPSED TOTAL CPU TIME (SEC) =   0.0000    
       ELAPSED WALLCLOCK TIME (SEC) =          0

                   22 SEVERE DISCONTINUITIES OCCURRED DURING THIS ITERATION.
                   22 POINTS CHANGED FROM CLOSED TO OPEN

               CONVERGENCE CHECKS FOR SEVERE DISCONTINUITY ITERATION     2

   MAX. PENETRATION ERROR 552.613E-09   AT NODE PART-1-1.22 OF CONTACT PAIR 
   (GENERAL_CONTACT_EDGES_5,GENERAL_CONTACT_FACES_1)
   MAX. CONTACT FORCE ERROR -2.80552     AT NODE PART-1-1.99 OF CONTACT PAIR 
   (GENERAL_CONTACT_FACES_5,GENERAL_CONTACT_FACES_1)
          THE CONTACT CONSTRAINT ERRORS ARE WITHIN THE TOLERANCES.

 AVERAGE FORCE                       9.49       TIME AVG. FORCE        9.49    
 LARGEST RESIDUAL FORCE              305.       AT NODE         22   DOF  3
   INSTANCE: PART-1-1                                                                        
 LARGEST INCREMENT OF DISP.         -5.46       AT NODE        115   DOF  3
   INSTANCE: PART-2-1                                                                        
 LARGEST CORRECTION TO DISP.         4.46       AT NODE        115   DOF  1
   INSTANCE: PART-2-1                                                                        
          FORCE     EQUILIBRIUM NOT ACHIEVED WITHIN TOLERANCE.

 AVERAGE MOMENT                      1.35       TIME AVG. MOMENT       1.35    
 LARGEST RESIDUAL MOMENT            -128.       AT NODE        101   DOF  5
   INSTANCE: PART-2-1                                                                        
 LARGEST INCREMENT OF ROTATION     -0.407       AT NODE         11   DOF  5
   INSTANCE: PART-1-1                                                                        
 LARGEST CORRECTION TO ROTATION    -0.407       AT NODE         11   DOF  5
   INSTANCE: PART-1-1                                                                        
          MOMENT    EQUILIBRIUM NOT ACHIEVED WITHIN TOLERANCE.
 
	SYMMETRIC DIRECT SPARSE SOLVER RUNNING ON
 	1 HOST:        1 MPI RANK  x 2 THREADS
 	NUMBER OF EQUATIONS:     2778
 	NUMBER OF RHS:           1
 	NUMBER OF FLOPS:         3.612e+07

     CHECK POINT   START OF SOLVER    

     CHECK POINT  END OF SOLVER       

       ELAPSED USER TIME (SEC)      =  0.10000    
       ELAPSED SYSTEM TIME (SEC)    =   0.0000    
       ELAPSED TOTAL CPU TIME (SEC) =  0.10000    
       ELAPSED WALLCLOCK TIME (SEC) =          0

                    8 SEVERE DISCONTINUITIES OCCURRED DURING THIS ITERATION.
                    8 POINTS CHANGED FROM CLOSED TO OPEN

               CONVERGENCE CHECKS FOR SEVERE DISCONTINUITY ITERATION     3

   MAX. PENETRATION ERROR -547.860E-09   AT NODE PART-2-1.89 OF CONTACT PAIR 
   (GENERAL_CONTACT_EDGES_2,GENERAL_CONTACT_FACES_1)
   MAX. CONTACT FORCE ERROR -1.64414     AT NODE PART-1-1.110 OF CONTACT PAIR 
   (GENERAL_CONTACT_EDGES_5,GENERAL_CONTACT_FACES_1)
          THE ESTIMATED CONTACT FORCE ERROR IS OUTSIDE OF CONVERGENCE TOLERANCES.

 AVERAGE FORCE                      0.719       TIME AVG. FORCE       0.719    
 LARGEST RESIDUAL FORCE             -25.0       AT NODE         44   DOF  3
   INSTANCE: PART-1-1                                                                        
 LARGEST INCREMENT OF DISP.         -5.85       AT NODE        116   DOF  3
   INSTANCE: PART-2-1                                                                        
 LARGEST CORRECTION TO DISP.       -0.939       AT NODE        111   DOF  3
   INSTANCE: PART-1-1                                                                        
          FORCE     EQUILIBRIUM NOT ACHIEVED WITHIN TOLERANCE.

 AVERAGE MOMENT                     0.188       TIME AVG. MOMENT      0.188    
 LARGEST RESIDUAL MOMENT            -12.6       AT NODE        101   DOF  5
   INSTANCE: PART-2-1                                                                        
 LARGEST INCREMENT OF ROTATION      0.396       AT NODE         56   DOF  5
   INSTANCE: PART-2-1                                                                        
 LARGEST CORRECTION TO ROTATION    -2.050E-02   AT NODE        121   DOF  5
   INSTANCE: PART-1-2                                                                        
          MOMENT    EQUILIBRIUM NOT ACHIEVED WITHIN TOLERANCE.
 
	SYMMETRIC DIRECT SPARSE SOLVER RUNNING ON
 	1 HOST:        1 MPI RANK  x 2 THREADS
 	NUMBER OF EQUATIONS:     2778
 	NUMBER OF RHS:           1
 	NUMBER OF FLOPS:         3.612e+07

     CHECK POINT   START OF SOLVER    

     CHECK POINT  END OF SOLVER       

       ELAPSED USER TIME (SEC)      =   0.0000    
       ELAPSED SYSTEM TIME (SEC)    =   0.0000    
       ELAPSED TOTAL CPU TIME (SEC) =   0.0000    
       ELAPSED WALLCLOCK TIME (SEC) =          0
 

 ***WARNING: THE SYSTEM MATRIX HAS 12 NEGATIVE EIGENVALUES.
             EXPLANATIONS ARE SUGGESTED AFTER THE FIRST OCCURRENCE OF THIS MESSAGE.

                   18 SEVERE DISCONTINUITIES OCCURRED DURING THIS ITERATION.
                    8 POINTS CHANGED FROM OPEN TO CLOSED
                   10 POINTS CHANGED FROM CLOSED TO OPEN

               CONVERGENCE CHECKS FOR SEVERE DISCONTINUITY ITERATION     4

   MAX. PENETRATION ERROR 15.3190E-03  AT NODE PART-1-1.11 OF CONTACT PAIR 
   (GENERAL_CONTACT_EDGES_5,GENERAL_CONTACT_FACES_1)
   MAX. CONTACT FORCE ERROR 734.114E-03   AT NODE PART-2-1.12 OF CONTACT PAIR 
   (GENERAL_CONTACT_EDGES_2,GENERAL_CONTACT_FACES_1)
          THE ESTIMATED CONTACT FORCE ERROR IS OUTSIDE OF CONVERGENCE TOLERANCES.

 AVERAGE FORCE                      0.200       TIME AVG. FORCE       0.200    
 LARGEST RESIDUAL FORCE             -4.07       AT NODE         65   DOF  1
   INSTANCE: PART-1-1                                                                        
 LARGEST INCREMENT OF DISP.         -6.02       AT NODE         60   DOF  3
   INSTANCE: PART-2-1                                                                        
 LARGEST CORRECTION TO DISP.       -0.419       AT NODE         59   DOF  3
   INSTANCE: PART-2-1                                                                        
          FORCE     EQUILIBRIUM NOT ACHIEVED WITHIN TOLERANCE.

 AVERAGE MOMENT                     0.138       TIME AVG. MOMENT      0.138    
 LARGEST RESIDUAL MOMENT           -0.904       AT NODE         68   DOF  5
   INSTANCE: PART-2-1                                                                        
 LARGEST INCREMENT OF ROTATION     -0.387       AT NODE         99   DOF  5
   INSTANCE: PART-1-1                                                                        
 LARGEST CORRECTION TO ROTATION    -5.332E-02   AT NODE         64   DOF  5
   INSTANCE: PART-1-1                                                                        
          MOMENT    EQUILIBRIUM NOT ACHIEVED WITHIN TOLERANCE.
 
	SYMMETRIC DIRECT SPARSE SOLVER RUNNING ON
 	1 HOST:        1 MPI RANK  x 2 THREADS
 	NUMBER OF EQUATIONS:     2778
 	NUMBER OF RHS:           1
 	NUMBER OF FLOPS:         3.609e+07

     CHECK POINT   START OF SOLVER    

     CHECK POINT  END OF SOLVER       

       ELAPSED USER TIME (SEC)      =  0.10000    
       ELAPSED SYSTEM TIME (SEC)    =   0.0000    
       ELAPSED TOTAL CPU TIME (SEC) =  0.10000    
       ELAPSED WALLCLOCK TIME (SEC) =          0

                    4 SEVERE DISCONTINUITIES OCCURRED DURING THIS ITERATION.
                    4 POINTS CHANGED FROM CLOSED TO OPEN

               CONVERGENCE CHECKS FOR SEVERE DISCONTINUITY ITERATION     5

   MAX. PENETRATION ERROR -1.88365E-06 AT NODE PART-2-1.89 OF CONTACT PAIR 
   (GENERAL_CONTACT_EDGES_2,GENERAL_CONTACT_FACES_1)
   MAX. CONTACT FORCE ERROR -70.7953E-03  AT NODE PART-1-1.11 OF CONTACT PAIR 
   (GENERAL_CONTACT_EDGES_5,GENERAL_CONTACT_FACES_1)
          THE CONTACT CONSTRAINT ERRORS ARE WITHIN THE TOLERANCES.

 AVERAGE FORCE                      0.851       TIME AVG. FORCE       0.851    
 LARGEST RESIDUAL FORCE              40.3       AT NODE         99   DOF  3
   INSTANCE: PART-1-1                                                                        
 LARGEST INCREMENT OF DISP.         -4.71       AT NODE          6   DOF  3
   INSTANCE: PART-2-1                                                                        
 LARGEST CORRECTION TO DISP.         1.41       AT NODE         81   DOF  3
   INSTANCE: PART-2-1                                                                        
          FORCE     EQUILIBRIUM NOT ACHIEVED WITHIN TOLERANCE.

 AVERAGE MOMENT                     0.126       TIME AVG. MOMENT      0.126    
 LARGEST RESIDUAL MOMENT             4.30       AT NODE         90   DOF  5
   INSTANCE: PART-2-1                                                                        
 LARGEST INCREMENT OF ROTATION      0.250       AT NODE         57   DOF  5
   INSTANCE: PART-2-1                                                                        
 LARGEST CORRECTION TO ROTATION     0.145       AT NODE         99   DOF  5
   INSTANCE: PART-1-1                                                                        
          MOMENT    EQUILIBRIUM NOT ACHIEVED WITHIN TOLERANCE.
 
	SYMMETRIC DIRECT SPARSE SOLVER RUNNING ON
 	1 HOST:        1 MPI RANK  x 2 THREADS
 	NUMBER OF EQUATIONS:     2778
 	NUMBER OF RHS:           1
 	NUMBER OF FLOPS:         3.609e+07

     CHECK POINT   START OF SOLVER    

     CHECK POINT  END OF SOLVER       

       ELAPSED USER TIME (SEC)      =   0.0000    
       ELAPSED SYSTEM TIME (SEC)    =   0.0000    
       ELAPSED TOTAL CPU TIME (SEC) =   0.0000    
       ELAPSED WALLCLOCK TIME (SEC) =          0

                    8 SEVERE DISCONTINUITIES OCCURRED DURING THIS ITERATION.
                    4 POINTS CHANGED FROM OPEN TO CLOSED
                    4 POINTS CHANGED FROM CLOSED TO OPEN

               CONVERGENCE CHECKS FOR SEVERE DISCONTINUITY ITERATION     6

   MAX. PENETRATION ERROR 850.654E-06   AT NODE PART-2-1.1 OF CONTACT PAIR 
   (GENERAL_CONTACT_EDGES_2,GENERAL_CONTACT_FACES_1)
   MAX. CONTACT FORCE ERROR -142.058E-03   AT NODE PART-2-1.89 OF CONTACT PAIR 
   (GENERAL_CONTACT_EDGES_2,GENERAL_CONTACT_FACES_1)
          THE ESTIMATED CONTACT FORCE ERROR IS OUTSIDE OF CONVERGENCE TOLERANCES.

 AVERAGE FORCE                      4.199E-02   TIME AVG. FORCE       4.199E-02
 LARGEST RESIDUAL FORCE            -0.852       AT NODE         65   DOF  1
   INSTANCE: PART-1-1                                                                        
 LARGEST INCREMENT OF DISP.         -4.58       AT NODE        116   DOF  3
   INSTANCE: PART-2-1                                                                        
 LARGEST CORRECTION TO DISP.        0.232       AT NODE         62   DOF  1
   INSTANCE: PART-1-1                                                                        
          FORCE     EQUILIBRIUM NOT ACHIEVED WITHIN TOLERANCE.

 AVERAGE MOMENT                     9.194E-02   TIME AVG. MOMENT      9.194E-02
 LARGEST RESIDUAL MOMENT           -0.311       AT NODE         57   DOF  5
   INSTANCE: PART-2-1                                                                        
 LARGEST INCREMENT OF ROTATION      0.249       AT NODE         56   DOF  5
   INSTANCE: PART-2-1                                                                        
 LARGEST CORRECTION TO ROTATION     2.147E-02   AT NODE         64   DOF  5
   INSTANCE: PART-1-1                                                                        
          MOMENT    EQUILIBRIUM NOT ACHIEVED WITHIN TOLERANCE.
 
	SYMMETRIC DIRECT SPARSE SOLVER RUNNING ON
 	1 HOST:        1 MPI RANK  x 2 THREADS
 	NUMBER OF EQUATIONS:     2778
 	NUMBER OF RHS:           1
 	NUMBER OF FLOPS:         3.609e+07

     CHECK POINT   START OF SOLVER    

     CHECK POINT  END OF SOLVER       

       ELAPSED USER TIME (SEC)      =   0.0000    
       ELAPSED SYSTEM TIME (SEC)    =   0.0000    
       ELAPSED TOTAL CPU TIME (SEC) =   0.0000    
       ELAPSED WALLCLOCK TIME (SEC) =          0

                   18 SEVERE DISCONTINUITIES OCCURRED DURING THIS ITERATION.
                   14 POINTS CHANGED FROM OPEN TO CLOSED
                    4 POINTS CHANGED FROM CLOSED TO OPEN

               CONVERGENCE CHECKS FOR SEVERE DISCONTINUITY ITERATION     7

   MAX. PENETRATION ERROR 4.54451E-03 AT NODE PART-2-1.56 OF CONTACT PAIR 
   (GENERAL_CONTACT_EDGES_2,GENERAL_CONTACT_FACES_1)
   MAX. CONTACT FORCE ERROR 383.346E-03   AT NODE PART-2-1.56 OF CONTACT PAIR 
   (GENERAL_CONTACT_EDGES_2,GENERAL_CONTACT_FACES_1)
          THE CONTACT CONSTRAINT ERRORS ARE WITHIN THE TOLERANCES.

 AVERAGE FORCE                       3.25       TIME AVG. FORCE        3.25    
 LARGEST RESIDUAL FORCE              128.       AT NODE         66   DOF  3
   INSTANCE: PART-1-1                                                                        
 LARGEST INCREMENT OF DISP.         -2.00       AT NODE         11   DOF  3
   INSTANCE: PART-1-2                                                                        
 LARGEST CORRECTION TO DISP.         2.72       AT NODE         84   DOF  3
   INSTANCE: PART-1-1                                                                        
          FORCE     EQUILIBRIUM NOT ACHIEVED WITHIN TOLERANCE.

 AVERAGE MOMENT                     0.237       TIME AVG. MOMENT      0.237    
 LARGEST RESIDUAL MOMENT            -20.3       AT NODE         65   DOF  5
   INSTANCE: PART-1-1                                                                        
 LARGEST INCREMENT OF ROTATION      6.331E-02   AT NODE          3   DOF  5
   INSTANCE: PART-2-1                                                                        
 LARGEST CORRECTION TO ROTATION     0.213       AT NODE         77   DOF  5
   INSTANCE: PART-1-1                                                                        
          MOMENT    EQUILIBRIUM NOT ACHIEVED WITHIN TOLERANCE.
 

 ***NOTE: THE SOLUTION APPEARS TO BE DIVERGING. CONVERGENCE IS JUDGED UNLIKELY.


  INCREMENT     1 STARTS. ATTEMPT NUMBER  3, TIME INCREMENT  6.250E-03
 
	SYMMETRIC DIRECT SPARSE SOLVER RUNNING ON
 	1 HOST:        1 MPI RANK  x 2 THREADS
 	NUMBER OF EQUATIONS:     2778
 	NUMBER OF RHS:           1
 	NUMBER OF FLOPS:         3.589e+07

     CHECK POINT   START OF SOLVER    

     CHECK POINT  END OF SOLVER       

       ELAPSED USER TIME (SEC)      =   0.0000    
       ELAPSED SYSTEM TIME (SEC)    =   0.0000    
       ELAPSED TOTAL CPU TIME (SEC) =   0.0000    
       ELAPSED WALLCLOCK TIME (SEC) =          0

               CONVERGENCE CHECKS FOR EQUILIBRIUM ITERATION     1


 AVERAGE FORCE                      2.235E-03   TIME AVG. FORCE       2.235E-03
 LARGEST RESIDUAL FORCE            -2.802E-02   AT NODE         22   DOF  1
   INSTANCE: PART-2-1                                                                        
 LARGEST INCREMENT OF DISP.        -0.500       AT NODE         11   DOF  3
   INSTANCE: PART-1-2                                                                        
 LARGEST CORRECTION TO DISP.       -0.500       AT NODE         11   DOF  3
   INSTANCE: PART-1-2                                                                        
          FORCE     EQUILIBRIUM NOT ACHIEVED WITHIN TOLERANCE.

 AVERAGE MOMENT                     2.077E-03   TIME AVG. MOMENT      2.077E-03
 LARGEST RESIDUAL MOMENT            1.627E-04   AT NODE         13   DOF  5
   INSTANCE: PART-1-1                                                                        
 LARGEST INCREMENT OF ROTATION      3.998E-03   AT NODE        121   DOF  5
   INSTANCE: PART-2-1                                                                        
 LARGEST CORRECTION TO ROTATION     3.998E-03   AT NODE        121   DOF  5
   INSTANCE: PART-2-1                                                                        
          MOMENT    EQUILIBRIUM NOT ACHIEVED WITHIN TOLERANCE.
 
	SYMMETRIC DIRECT SPARSE SOLVER RUNNING ON
 	1 HOST:        1 MPI RANK  x 2 THREADS
 	NUMBER OF EQUATIONS:     2778
 	NUMBER OF RHS:           1
 	NUMBER OF FLOPS:         3.589e+07

     CHECK POINT   START OF SOLVER    

     CHECK POINT  END OF SOLVER       

       ELAPSED USER TIME (SEC)      =   0.0000    
       ELAPSED SYSTEM TIME (SEC)    =   0.0000    
       ELAPSED TOTAL CPU TIME (SEC) =   0.0000    
       ELAPSED WALLCLOCK TIME (SEC) =          0

               CONVERGENCE CHECKS FOR EQUILIBRIUM ITERATION     2


 AVERAGE FORCE                      1.009E-03   TIME AVG. FORCE       1.009E-03
 LARGEST RESIDUAL FORCE            -1.908E-06   AT NODE         66   DOF  1
   INSTANCE: PART-2-1                                                                        
 LARGEST INCREMENT OF DISP.        -0.500       AT NODE         11   DOF  3
   INSTANCE: PART-1-2                                                                        
 LARGEST CORRECTION TO DISP.        7.705E-04   AT NODE          6   DOF  3
   INSTANCE: PART-1-3                                                                        
          THE FORCE     EQUILIBRIUM EQUATIONS HAVE CONVERGED

 AVERAGE MOMENT                     2.099E-03   TIME AVG. MOMENT      2.099E-03
 LARGEST RESIDUAL MOMENT           -2.470E-06   AT NODE        109   DOF  5
   INSTANCE: PART-1-3                                                                        
 LARGEST INCREMENT OF ROTATION     -4.042E-03   AT NODE        121   DOF  5
   INSTANCE: PART-1-3                                                                        
 LARGEST CORRECTION TO ROTATION    -4.596E-05   AT NODE         11   DOF  5
   INSTANCE: PART-1-3                                                                        
          ROTATION CORRECTION TOO LARGE COMPARED TO ROTATION INCREMENT
 
	SYMMETRIC DIRECT SPARSE SOLVER RUNNING ON
 	1 HOST:        1 MPI RANK  x 2 THREADS
 	NUMBER OF EQUATIONS:     2778
 	NUMBER OF RHS:           1
 	NUMBER OF FLOPS:         3.589e+07

     CHECK POINT   START OF SOLVER    

     CHECK POINT  END OF SOLVER       

       ELAPSED USER TIME (SEC)      =  0.10000    
       ELAPSED SYSTEM TIME (SEC)    =   0.0000    
       ELAPSED TOTAL CPU TIME (SEC) =  0.10000    
       ELAPSED WALLCLOCK TIME (SEC) =          0

               CONVERGENCE CHECKS FOR EQUILIBRIUM ITERATION     3


 AVERAGE FORCE                      1.010E-03   TIME AVG. FORCE       1.010E-03
 LARGEST RESIDUAL FORCE            -3.860E-09   AT NODE        110   DOF  1
   INSTANCE: PART-2-1                                                                        
 LARGEST INCREMENT OF DISP.        -0.500       AT NODE         11   DOF  3
   INSTANCE: PART-1-2                                                                        
 LARGEST CORRECTION TO DISP.        2.684E-05   AT NODE          6   DOF  3
   INSTANCE: PART-1-3                                                                        
          THE FORCE     EQUILIBRIUM EQUATIONS HAVE CONVERGED

 AVERAGE MOMENT                     2.099E-03   TIME AVG. MOMENT      2.099E-03
 LARGEST RESIDUAL MOMENT           -1.459E-10   AT NODE        119   DOF  4
   INSTANCE: PART-1-3                                                                        
 LARGEST INCREMENT OF ROTATION     -4.044E-03   AT NODE        121   DOF  5
   INSTANCE: PART-1-3                                                                        
 LARGEST CORRECTION TO ROTATION    -2.169E-06   AT NODE         11   DOF  5
   INSTANCE: PART-1-3                                                                        
          THE MOMENT    EQUILIBRIUM EQUATIONS HAVE CONVERGED

 ITERATION SUMMARY FOR THE INCREMENT:   3 TOTAL ITERATIONS, OF WHICH
   0 ARE SEVERE DISCONTINUITY ITERATIONS AND  3 ARE EQUILIBRIUM ITERATIONS.

 TIME INCREMENT COMPLETED  6.250E-03,  FRACTION OF STEP COMPLETED  6.250E-03
 STEP TIME COMPLETED       6.250E-03,  TOTAL TIME COMPLETED        6.250E-03


  INCREMENT     2 STARTS. ATTEMPT NUMBER  1, TIME INCREMENT  6.250E-03
 
	SYMMETRIC DIRECT SPARSE SOLVER RUNNING ON
 	1 HOST:        1 MPI RANK  x 2 THREADS
 	NUMBER OF EQUATIONS:     2778
 	NUMBER OF RHS:           1
 	NUMBER OF FLOPS:         3.614e+07

     CHECK POINT   START OF SOLVER    

     CHECK POINT  END OF SOLVER       

       ELAPSED USER TIME (SEC)      =   0.0000    
       ELAPSED SYSTEM TIME (SEC)    =   0.0000    
       ELAPSED TOTAL CPU TIME (SEC) =   0.0000    
       ELAPSED WALLCLOCK TIME (SEC) =          0

                   22 SEVERE DISCONTINUITIES OCCURRED DURING THIS ITERATION.
                   22 POINTS CHANGED FROM OPEN TO CLOSED

               CONVERGENCE CHECKS FOR SEVERE DISCONTINUITY ITERATION     1

   MAX. PENETRATION ERROR 73.5726E-03  AT NODE PART-2-1.111 OF CONTACT PAIR 
   (GENERAL_CONTACT_EDGES_2,GENERAL_CONTACT_FACES_1)
   MAX. CONTACT FORCE ERROR 6.20425     AT NODE PART-2-1.12 OF CONTACT PAIR 
   (GENERAL_CONTACT_EDGES_2,GENERAL_CONTACT_FACES_1)
          PENETRATION ERROR TOO LARGE COMPARED TO DISPLACEMENT INCREMENT.

 AVERAGE FORCE                      4.407E-02   TIME AVG. FORCE       2.254E-02
 LARGEST RESIDUAL FORCE            -0.301       AT NODE         22   DOF  1
   INSTANCE: PART-2-1                                                                        
 LARGEST INCREMENT OF DISP.        -0.794       AT NODE          4   DOF  3
   INSTANCE: PART-2-1                                                                        
 LARGEST CORRECTION TO DISP.       -0.425       AT NODE          4   DOF  3
   INSTANCE: PART-2-1                                                                        
          FORCE     EQUILIBRIUM NOT ACHIEVED WITHIN TOLERANCE.

 AVERAGE MOMENT                     5.202E-03   TIME AVG. MOMENT      3.651E-03
 LARGEST RESIDUAL MOMENT            4.887E-03   AT NODE         65   DOF  5
   INSTANCE: PART-2-1                                                                        
 LARGEST INCREMENT OF ROTATION      9.363E-03   AT NODE         11   DOF  5
   INSTANCE: PART-1-3                                                                        
 LARGEST CORRECTION TO ROTATION     1.341E-02   AT NODE         11   DOF  5
   INSTANCE: PART-1-3                                                                        
          MOMENT    EQUILIBRIUM NOT ACHIEVED WITHIN TOLERANCE.
 
	SYMMETRIC DIRECT SPARSE SOLVER RUNNING ON
 	1 HOST:        1 MPI RANK  x 2 THREADS
 	NUMBER OF EQUATIONS:     2778
 	NUMBER OF RHS:           1
 	NUMBER OF FLOPS:         3.675e+07

     CHECK POINT   START OF SOLVER    

     CHECK POINT  END OF SOLVER       

       ELAPSED USER TIME (SEC)      =   0.0000    
       ELAPSED SYSTEM TIME (SEC)    =   0.0000    
       ELAPSED TOTAL CPU TIME (SEC) =   0.0000    
       ELAPSED WALLCLOCK TIME (SEC) =          0

               CONVERGENCE CHECKS FOR EQUILIBRIUM ITERATION     1

   MAX. PENETRATION ERROR -94.7503E-15  AT NODE PART-2-1.12 OF CONTACT PAIR 
   (GENERAL_CONTACT_EDGES_2,GENERAL_CONTACT_FACES_1)
   MAX. CONTACT FORCE ERROR -7.99185E-12 AT NODE PART-2-1.12 OF CONTACT PAIR 
   (GENERAL_CONTACT_EDGES_2,GENERAL_CONTACT_FACES_1)
          THE CONTACT CONSTRAINTS HAVE CONVERGED.

 AVERAGE FORCE                      2.215E-03   TIME AVG. FORCE       1.613E-03
 LARGEST RESIDUAL FORCE             0.157       AT NODE         33   DOF  3
   INSTANCE: PART-1-1                                                                        
 LARGEST INCREMENT OF DISP.        -0.688       AT NODE          5   DOF  3
   INSTANCE: PART-2-1                                                                        
 LARGEST CORRECTION TO DISP.        0.147       AT NODE          1   DOF  3
   INSTANCE: PART-2-1                                                                        
          FORCE     EQUILIBRIUM NOT ACHIEVED WITHIN TOLERANCE.

 AVERAGE MOMENT                     6.183E-03   TIME AVG. MOMENT      4.141E-03
 LARGEST RESIDUAL MOMENT           -6.756E-04   AT NODE         65   DOF  5
   INSTANCE: PART-1-3                                                                        
 LARGEST INCREMENT OF ROTATION      8.496E-03   AT NODE         11   DOF  5
   INSTANCE: PART-1-3                                                                        
 LARGEST CORRECTION TO ROTATION     2.481E-03   AT NODE          1   DOF  5
   INSTANCE: PART-2-1                                                                        
          MOMENT    EQUILIBRIUM NOT ACHIEVED WITHIN TOLERANCE.
 
	SYMMETRIC DIRECT SPARSE SOLVER RUNNING ON
 	1 HOST:        1 MPI RANK  x 2 THREADS
 	NUMBER OF EQUATIONS:     2778
 	NUMBER OF RHS:           1
 	NUMBER OF FLOPS:         3.675e+07

     CHECK POINT   START OF SOLVER    

     CHECK POINT  END OF SOLVER       

       ELAPSED USER TIME (SEC)      =   0.0000    
       ELAPSED SYSTEM TIME (SEC)    =   0.0000    
       ELAPSED TOTAL CPU TIME (SEC) =   0.0000    
       ELAPSED WALLCLOCK TIME (SEC) =          0

               CONVERGENCE CHECKS FOR EQUILIBRIUM ITERATION     2

   MAX. PENETRATION ERROR -2.14572E-15 AT NODE PART-2-1.23 OF CONTACT PAIR 
   (GENERAL_CONTACT_EDGES_2,GENERAL_CONTACT_FACES_1)
   MAX. CONTACT FORCE ERROR -203.607E-15   AT NODE PART-2-1.23 OF CONTACT PAIR 
   (GENERAL_CONTACT_EDGES_2,GENERAL_CONTACT_FACES_1)
          THE CONTACT CONSTRAINTS HAVE CONVERGED.

 AVERAGE FORCE                      3.148E-04   TIME AVG. FORCE       6.626E-04
 LARGEST RESIDUAL FORCE            -4.254E-04   AT NODE        110   DOF  1
   INSTANCE: PART-2-1                                                                        
 LARGEST INCREMENT OF DISP.        -0.683       AT NODE        115   DOF  3
   INSTANCE: PART-2-1                                                                        
 LARGEST CORRECTION TO DISP.        6.359E-03   AT NODE          6   DOF  1
   INSTANCE: PART-1-3                                                                        
          FORCE     EQUILIBRIUM NOT ACHIEVED WITHIN TOLERANCE.

 AVERAGE MOMENT                     5.690E-03   TIME AVG. MOMENT      3.895E-03
 LARGEST RESIDUAL MOMENT           -7.376E-06   AT NODE        101   DOF  5
   INSTANCE: PART-1-2                                                                        
 LARGEST INCREMENT OF ROTATION     -8.062E-03   AT NODE        121   DOF  5
   INSTANCE: PART-2-1                                                                        
 LARGEST CORRECTION TO ROTATION    -4.981E-04   AT NODE         11   DOF  5
   INSTANCE: PART-1-3                                                                        
 ESTIMATE OF ROTATION CORRECTION   -5.438E-06
 MOMENT    EQUILIB. ACCEPTED BASED ON SMALL RESIDUAL AND ESTIMATED CORRECTION
 
	SYMMETRIC DIRECT SPARSE SOLVER RUNNING ON
 	1 HOST:        1 MPI RANK  x 2 THREADS
 	NUMBER OF EQUATIONS:     2778
 	NUMBER OF RHS:           1
 	NUMBER OF FLOPS:         3.675e+07

     CHECK POINT   START OF SOLVER    

     CHECK POINT  END OF SOLVER       

       ELAPSED USER TIME (SEC)      =  0.10000    
       ELAPSED SYSTEM TIME (SEC)    =   0.0000    
       ELAPSED TOTAL CPU TIME (SEC) =  0.10000    
       ELAPSED WALLCLOCK TIME (SEC) =          0

               CONVERGENCE CHECKS FOR EQUILIBRIUM ITERATION     3

   MAX. PENETRATION ERROR 1.25049E-15 AT NODE PART-2-1.1 OF CONTACT PAIR 
   (GENERAL_CONTACT_EDGES_2,GENERAL_CONTACT_FACES_1)
   MAX. CONTACT FORCE ERROR 92.8483E-15  AT NODE PART-2-1.23 OF CONTACT PAIR 
   (GENERAL_CONTACT_EDGES_2,GENERAL_CONTACT_FACES_1)
          THE CONTACT CONSTRAINTS HAVE CONVERGED.

 AVERAGE FORCE                      3.105E-04   TIME AVG. FORCE       6.604E-04
 LARGEST RESIDUAL FORCE            -1.228E-07   AT NODE        110   DOF  1
   INSTANCE: PART-2-1                                                                        
 LARGEST INCREMENT OF DISP.        -0.683       AT NODE        115   DOF  3
   INSTANCE: PART-2-1                                                                        
 LARGEST CORRECTION TO DISP.        1.009E-04   AT NODE        116   DOF  3
   INSTANCE: PART-1-3                                                                        
          THE FORCE     EQUILIBRIUM EQUATIONS HAVE CONVERGED

 AVERAGE MOMENT                     5.691E-03   TIME AVG. MOMENT      3.895E-03
 LARGEST RESIDUAL MOMENT           -6.363E-09   AT NODE         21   DOF  5
   INSTANCE: PART-1-3                                                                        
 LARGEST INCREMENT OF ROTATION     -8.057E-03   AT NODE        121   DOF  5
   INSTANCE: PART-2-1                                                                        
 LARGEST CORRECTION TO ROTATION    -7.409E-06   AT NODE          1   DOF  5
   INSTANCE: PART-1-2                                                                        
          THE MOMENT    EQUILIBRIUM EQUATIONS HAVE CONVERGED
          TIME INCREMENT MAY NOW INCREASE TO    9.375E-03

 ITERATION SUMMARY FOR THE INCREMENT:   4 TOTAL ITERATIONS, OF WHICH
   1 ARE SEVERE DISCONTINUITY ITERATIONS AND  3 ARE EQUILIBRIUM ITERATIONS.

 TIME INCREMENT COMPLETED  6.250E-03,  FRACTION OF STEP COMPLETED  1.250E-02
 STEP TIME COMPLETED       1.250E-02,  TOTAL TIME COMPLETED        1.250E-02


  INCREMENT     3 STARTS. ATTEMPT NUMBER  1, TIME INCREMENT  9.375E-03
 
	SYMMETRIC DIRECT SPARSE SOLVER RUNNING ON
 	1 HOST:        1 MPI RANK  x 2 THREADS
 	NUMBER OF EQUATIONS:     2778
 	NUMBER OF RHS:           1
 	NUMBER OF FLOPS:         3.675e+07

     CHECK POINT   START OF SOLVER    

     CHECK POINT  END OF SOLVER       

       ELAPSED USER TIME (SEC)      =  0.10000    
       ELAPSED SYSTEM TIME (SEC)    =   0.0000    
       ELAPSED TOTAL CPU TIME (SEC) =  0.10000    
       ELAPSED WALLCLOCK TIME (SEC) =          0

               CONVERGENCE CHECKS FOR EQUILIBRIUM ITERATION     1

   MAX. PENETRATION ERROR -3.24038E-12 AT NODE PART-2-1.12 OF CONTACT PAIR 
   (GENERAL_CONTACT_EDGES_2,GENERAL_CONTACT_FACES_1)
   MAX. CONTACT FORCE ERROR -273.314E-12   AT NODE PART-2-1.12 OF CONTACT PAIR 
   (GENERAL_CONTACT_EDGES_2,GENERAL_CONTACT_FACES_1)
          THE CONTACT CONSTRAINTS HAVE CONVERGED.

 AVERAGE FORCE                      8.606E-02   TIME AVG. FORCE       2.913E-02
 LARGEST RESIDUAL FORCE             0.869       AT NODE         66   DOF  3
   INSTANCE: PART-1-1                                                                        
 LARGEST INCREMENT OF DISP.        -0.750       AT NODE         11   DOF  3
   INSTANCE: PART-1-2                                                                        
 LARGEST CORRECTION TO DISP.        0.926       AT NODE         11   DOF  3
   INSTANCE: PART-1-1                                                                        
          FORCE     EQUILIBRIUM NOT ACHIEVED WITHIN TOLERANCE.

 AVERAGE MOMENT                     6.415E-03   TIME AVG. MOMENT      4.735E-03
 LARGEST RESIDUAL MOMENT           -6.287E-03   AT NODE         87   DOF  5
   INSTANCE: PART-2-1                                                                        
 LARGEST INCREMENT OF ROTATION      9.098E-03   AT NODE         11   DOF  5
   INSTANCE: PART-2-1                                                                        
 LARGEST CORRECTION TO ROTATION     2.118E-02   AT NODE         11   DOF  5
   INSTANCE: PART-2-1                                                                        
          MOMENT    EQUILIBRIUM NOT ACHIEVED WITHIN TOLERANCE.
 
	SYMMETRIC DIRECT SPARSE SOLVER RUNNING ON
 	1 HOST:        1 MPI RANK  x 2 THREADS
 	NUMBER OF EQUATIONS:     2778
 	NUMBER OF RHS:           1
 	NUMBER OF FLOPS:         3.675e+07

     CHECK POINT   START OF SOLVER    

     CHECK POINT  END OF SOLVER       

       ELAPSED USER TIME (SEC)      =   0.0000    
       ELAPSED SYSTEM TIME (SEC)    =   0.0000    
       ELAPSED TOTAL CPU TIME (SEC) =   0.0000    
       ELAPSED WALLCLOCK TIME (SEC) =          1

               CONVERGENCE CHECKS FOR EQUILIBRIUM ITERATION     2

   MAX. PENETRATION ERROR 74.9815E-15  AT NODE PART-1-1.33 OF CONTACT PAIR 
   (GENERAL_CONTACT_EDGES_5,GENERAL_CONTACT_FACES_1)
   MAX. CONTACT FORCE ERROR 7.11499E-12 AT NODE PART-1-1.33 OF CONTACT PAIR 
   (GENERAL_CONTACT_EDGES_5,GENERAL_CONTACT_FACES_1)
          THE CONTACT CONSTRAINTS HAVE CONVERGED.

 AVERAGE FORCE                      6.899E-03   TIME AVG. FORCE       2.740E-03
 LARGEST RESIDUAL FORCE             6.614E-04   AT NODE         22   DOF  3
   INSTANCE: PART-1-1                                                                        
 LARGEST INCREMENT OF DISP.        -0.750       AT NODE         11   DOF  3
   INSTANCE: PART-1-2                                                                        
 LARGEST CORRECTION TO DISP.        9.258E-03   AT NODE        116   DOF  3
   INSTANCE: PART-1-3                                                                        
          FORCE     EQUILIBRIUM NOT ACHIEVED WITHIN TOLERANCE.

 AVERAGE MOMENT                     5.711E-03   TIME AVG. MOMENT      4.501E-03
 LARGEST RESIDUAL MOMENT           -6.497E-04   AT NODE        109   DOF  5
   INSTANCE: PART-1-3                                                                        
 LARGEST INCREMENT OF ROTATION      9.323E-03   AT NODE        121   DOF  5
   INSTANCE: PART-2-1                                                                        
 LARGEST CORRECTION TO ROTATION     6.083E-04   AT NODE        111   DOF  5
   INSTANCE: PART-1-3                                                                        
          MOMENT    EQUILIBRIUM NOT ACHIEVED WITHIN TOLERANCE.
 
	SYMMETRIC DIRECT SPARSE SOLVER RUNNING ON
 	1 HOST:        1 MPI RANK  x 2 THREADS
 	NUMBER OF EQUATIONS:     2778
 	NUMBER OF RHS:           1
 	NUMBER OF FLOPS:         3.675e+07

     CHECK POINT   START OF SOLVER    

     CHECK POINT  END OF SOLVER       

       ELAPSED USER TIME (SEC)      =   0.0000    
       ELAPSED SYSTEM TIME (SEC)    =   0.0000    
       ELAPSED TOTAL CPU TIME (SEC) =   0.0000    
       ELAPSED WALLCLOCK TIME (SEC) =          0

               CONVERGENCE CHECKS FOR EQUILIBRIUM ITERATION     3

   MAX. PENETRATION ERROR -2.30890E-15 AT NODE PART-1-1.33 OF CONTACT PAIR 
   (GENERAL_CONTACT_EDGES_5,GENERAL_CONTACT_FACES_1)
   MAX. CONTACT FORCE ERROR -219.092E-15   AT NODE PART-1-1.33 OF CONTACT PAIR 
   (GENERAL_CONTACT_EDGES_5,GENERAL_CONTACT_FACES_1)
          THE CONTACT CONSTRAINTS HAVE CONVERGED.

 AVERAGE FORCE                      6.871E-03   TIME AVG. FORCE       2.731E-03
 LARGEST RESIDUAL FORCE            -5.549E-04   AT NODE         22   DOF  1
   INSTANCE: PART-2-1                                                                        
 LARGEST INCREMENT OF DISP.        -0.750       AT NODE         11   DOF  3
   INSTANCE: PART-1-2                                                                        
 LARGEST CORRECTION TO DISP.        7.731E-03   AT NODE        116   DOF  3
   INSTANCE: PART-1-3                                                                        
          FORCE     EQUILIBRIUM NOT ACHIEVED WITHIN TOLERANCE.

 AVERAGE MOMENT                     5.172E-03   TIME AVG. MOMENT      4.321E-03
 LARGEST RESIDUAL MOMENT           -6.141E-07   AT NODE         65   DOF  5
   INSTANCE: PART-1-2                                                                        
 LARGEST INCREMENT OF ROTATION     -9.718E-03   AT NODE        121   DOF  5
   INSTANCE: PART-1-3                                                                        
 LARGEST CORRECTION TO ROTATION    -6.267E-04   AT NODE        121   DOF  5
   INSTANCE: PART-1-3                                                                        
 ESTIMATE OF ROTATION CORRECTION   -5.923E-07
 MOMENT    EQUILIB. ACCEPTED BASED ON SMALL RESIDUAL AND ESTIMATED CORRECTION
 
	SYMMETRIC DIRECT SPARSE SOLVER RUNNING ON
 	1 HOST:        1 MPI RANK  x 2 THREADS
 	NUMBER OF EQUATIONS:     2778
 	NUMBER OF RHS:           1
 	NUMBER OF FLOPS:         3.675e+07

     CHECK POINT   START OF SOLVER    

     CHECK POINT  END OF SOLVER       

       ELAPSED USER TIME (SEC)      =   0.0000    
       ELAPSED SYSTEM TIME (SEC)    =   0.0000    
       ELAPSED TOTAL CPU TIME (SEC) =   0.0000    
       ELAPSED WALLCLOCK TIME (SEC) =          0

               CONVERGENCE CHECKS FOR EQUILIBRIUM ITERATION     4

   MAX. PENETRATION ERROR -835.944E-18   AT NODE PART-1-1.33 OF CONTACT PAIR 
   (GENERAL_CONTACT_EDGES_5,GENERAL_CONTACT_FACES_1)
   MAX. CONTACT FORCE ERROR -79.3227E-15  AT NODE PART-1-1.33 OF CONTACT PAIR 
   (GENERAL_CONTACT_EDGES_5,GENERAL_CONTACT_FACES_1)
          THE CONTACT CONSTRAINTS HAVE CONVERGED.

 AVERAGE FORCE                      6.898E-03   TIME AVG. FORCE       2.740E-03
 LARGEST RESIDUAL FORCE             5.899E-10   AT NODE         12   DOF  1
   INSTANCE: PART-1-1                                                                        
 LARGEST INCREMENT OF DISP.        -0.750       AT NODE         11   DOF  3
   INSTANCE: PART-1-2                                                                        
 LARGEST CORRECTION TO DISP.        8.646E-06   AT NODE          6   DOF  3
   INSTANCE: PART-1-3                                                                        
          THE FORCE     EQUILIBRIUM EQUATIONS HAVE CONVERGED

 AVERAGE MOMENT                     5.180E-03   TIME AVG. MOMENT      4.323E-03
 LARGEST RESIDUAL MOMENT            1.621E-09   AT NODE         67   DOF  5
   INSTANCE: PART-1-3                                                                        
 LARGEST INCREMENT OF ROTATION     -9.718E-03   AT NODE        121   DOF  5
   INSTANCE: PART-1-3                                                                        
 LARGEST CORRECTION TO ROTATION     6.218E-07   AT NODE          1   DOF  5
   INSTANCE: PART-1-3                                                                        
          THE MOMENT    EQUILIBRIUM EQUATIONS HAVE CONVERGED
          TIME INCREMENT MAY NOW INCREASE TO    1.406E-02

 ITERATION SUMMARY FOR THE INCREMENT:   4 TOTAL ITERATIONS, OF WHICH
   0 ARE SEVERE DISCONTINUITY ITERATIONS AND  4 ARE EQUILIBRIUM ITERATIONS.

 TIME INCREMENT COMPLETED  9.375E-03,  FRACTION OF STEP COMPLETED  2.188E-02
 STEP TIME COMPLETED       2.188E-02,  TOTAL TIME COMPLETED        2.188E-02


  INCREMENT     4 STARTS. ATTEMPT NUMBER  1, TIME INCREMENT  1.406E-02
 
	SYMMETRIC DIRECT SPARSE SOLVER RUNNING ON
 	1 HOST:        1 MPI RANK  x 2 THREADS
 	NUMBER OF EQUATIONS:     2778
 	NUMBER OF RHS:           1
 	NUMBER OF FLOPS:         3.675e+07

     CHECK POINT   START OF SOLVER    

     CHECK POINT  END OF SOLVER       

       ELAPSED USER TIME (SEC)      =  0.10000    
       ELAPSED SYSTEM TIME (SEC)    =   0.0000    
       ELAPSED TOTAL CPU TIME (SEC) =  0.10000    
       ELAPSED WALLCLOCK TIME (SEC) =          0

               CONVERGENCE CHECKS FOR EQUILIBRIUM ITERATION     1

   MAX. PENETRATION ERROR -17.9772E-15  AT NODE PART-1-1.88 OF CONTACT PAIR 
   (GENERAL_CONTACT_EDGES_5,GENERAL_CONTACT_FACES_1)
   MAX. CONTACT FORCE ERROR -1.51632E-12 AT NODE PART-1-1.88 OF CONTACT PAIR 
   (GENERAL_CONTACT_EDGES_5,GENERAL_CONTACT_FACES_1)
          THE CONTACT CONSTRAINTS HAVE CONVERGED.

 AVERAGE FORCE                      1.502E-02   TIME AVG. FORCE       5.809E-03
 LARGEST RESIDUAL FORCE             4.495E-02   AT NODE         22   DOF  3
   INSTANCE: PART-1-1                                                                        
 LARGEST INCREMENT OF DISP.         -1.13       AT NODE         11   DOF  3
   INSTANCE: PART-1-2                                                                        
 LARGEST CORRECTION TO DISP.       -4.783E-02   AT NODE        115   DOF  1
   INSTANCE: PART-2-1                                                                        
          FORCE     EQUILIBRIUM NOT ACHIEVED WITHIN TOLERANCE.

 AVERAGE MOMENT                     6.148E-03   TIME AVG. MOMENT      4.779E-03
 LARGEST RESIDUAL MOMENT           -3.048E-03   AT NODE         13   DOF  5
   INSTANCE: PART-2-1                                                                        
 LARGEST INCREMENT OF ROTATION      1.599E-02   AT NODE         11   DOF  5
   INSTANCE: PART-2-1                                                                        
 LARGEST CORRECTION TO ROTATION    -3.967E-03   AT NODE        111   DOF  5
   INSTANCE: PART-2-1                                                                        
          MOMENT    EQUILIBRIUM NOT ACHIEVED WITHIN TOLERANCE.
 
	SYMMETRIC DIRECT SPARSE SOLVER RUNNING ON
 	1 HOST:        1 MPI RANK  x 2 THREADS
 	NUMBER OF EQUATIONS:     2778
 	NUMBER OF RHS:           1
 	NUMBER OF FLOPS:         3.675e+07

     CHECK POINT   START OF SOLVER    

     CHECK POINT  END OF SOLVER       

       ELAPSED USER TIME (SEC)      =  0.10000    
       ELAPSED SYSTEM TIME (SEC)    =   0.0000    
       ELAPSED TOTAL CPU TIME (SEC) =  0.10000    
       ELAPSED WALLCLOCK TIME (SEC) =          0

               CONVERGENCE CHECKS FOR EQUILIBRIUM ITERATION     2

   MAX. PENETRATION ERROR -17.9685E-15  AT NODE PART-2-1.1 OF CONTACT PAIR 
   (GENERAL_CONTACT_EDGES_2,GENERAL_CONTACT_FACES_1)
   MAX. CONTACT FORCE ERROR 1.12415E-12 AT NODE PART-2-1.100 OF CONTACT PAIR 
   (GENERAL_CONTACT_EDGES_2,GENERAL_CONTACT_FACES_1)
          THE CONTACT CONSTRAINTS HAVE CONVERGED.

 AVERAGE FORCE                      1.586E-02   TIME AVG. FORCE       6.020E-03
 LARGEST RESIDUAL FORCE             2.244E-04   AT NODE        110   DOF  3
   INSTANCE: PART-1-1                                                                        
 LARGEST INCREMENT OF DISP.         -1.13       AT NODE         11   DOF  3
   INSTANCE: PART-1-2                                                                        
 LARGEST CORRECTION TO DISP.        3.778E-03   AT NODE        116   DOF  3
   INSTANCE: PART-2-1                                                                        
          FORCE     EQUILIBRIUM NOT ACHIEVED WITHIN TOLERANCE.

 AVERAGE MOMENT                     6.461E-03   TIME AVG. MOMENT      4.858E-03
 LARGEST RESIDUAL MOMENT           -1.220E-05   AT NODE        101   DOF  5
   INSTANCE: PART-2-1                                                                        
 LARGEST INCREMENT OF ROTATION      1.622E-02   AT NODE         11   DOF  5
   INSTANCE: PART-2-1                                                                        
 LARGEST CORRECTION TO ROTATION    -2.792E-04   AT NODE          1   DOF  5
   INSTANCE: PART-2-1                                                                        
 ESTIMATE OF ROTATION CORRECTION   -1.118E-06
 MOMENT    EQUILIB. ACCEPTED BASED ON SMALL RESIDUAL AND ESTIMATED CORRECTION
 
	SYMMETRIC DIRECT SPARSE SOLVER RUNNING ON
 	1 HOST:        1 MPI RANK  x 2 THREADS
 	NUMBER OF EQUATIONS:     2778
 	NUMBER OF RHS:           1
 	NUMBER OF FLOPS:         3.675e+07

     CHECK POINT   START OF SOLVER    

     CHECK POINT  END OF SOLVER       

       ELAPSED USER TIME (SEC)      =  0.10000    
       ELAPSED SYSTEM TIME (SEC)    =   0.0000    
       ELAPSED TOTAL CPU TIME (SEC) =  0.10000    
       ELAPSED WALLCLOCK TIME (SEC) =          0

               CONVERGENCE CHECKS FOR EQUILIBRIUM ITERATION     3

   MAX. PENETRATION ERROR -5.82320E-15 AT NODE PART-2-1.111 OF CONTACT PAIR 
   (GENERAL_CONTACT_EDGES_2,GENERAL_CONTACT_FACES_1)
   MAX. CONTACT FORCE ERROR -245.582E-15   AT NODE PART-2-1.111 OF CONTACT PAIR 
   (GENERAL_CONTACT_EDGES_2,GENERAL_CONTACT_FACES_1)
          THE CONTACT CONSTRAINTS HAVE CONVERGED.

 AVERAGE FORCE                      1.587E-02   TIME AVG. FORCE       6.022E-03
 LARGEST RESIDUAL FORCE             5.764E-07   AT NODE        110   DOF  3
   INSTANCE: PART-1-1                                                                        
 LARGEST INCREMENT OF DISP.         -1.13       AT NODE         11   DOF  3
   INSTANCE: PART-1-2                                                                        
 LARGEST CORRECTION TO DISP.        1.786E-04   AT NODE          6   DOF  3
   INSTANCE: PART-2-1                                                                        
          THE FORCE     EQUILIBRIUM EQUATIONS HAVE CONVERGED

 AVERAGE MOMENT                     6.485E-03   TIME AVG. MOMENT      4.864E-03
 LARGEST RESIDUAL MOMENT            9.076E-09   AT NODE        110   DOF  5
   INSTANCE: PART-2-1                                                                        
 LARGEST INCREMENT OF ROTATION      1.624E-02   AT NODE         11   DOF  5
   INSTANCE: PART-2-1                                                                        
 LARGEST CORRECTION TO ROTATION    -1.445E-05   AT NODE        111   DOF  5
   INSTANCE: PART-2-1                                                                        
          THE MOMENT    EQUILIBRIUM EQUATIONS HAVE CONVERGED
          TIME INCREMENT MAY NOW INCREASE TO    2.109E-02

 ITERATION SUMMARY FOR THE INCREMENT:   3 TOTAL ITERATIONS, OF WHICH
   0 ARE SEVERE DISCONTINUITY ITERATIONS AND  3 ARE EQUILIBRIUM ITERATIONS.

 TIME INCREMENT COMPLETED  1.406E-02,  FRACTION OF STEP COMPLETED  3.594E-02
 STEP TIME COMPLETED       3.594E-02,  TOTAL TIME COMPLETED        3.594E-02


  INCREMENT     5 STARTS. ATTEMPT NUMBER  1, TIME INCREMENT  2.109E-02
 
	SYMMETRIC DIRECT SPARSE SOLVER RUNNING ON
 	1 HOST:        1 MPI RANK  x 2 THREADS
 	NUMBER OF EQUATIONS:     2778
 	NUMBER OF RHS:           1
 	NUMBER OF FLOPS:         3.675e+07

     CHECK POINT   START OF SOLVER    

     CHECK POINT  END OF SOLVER       

       ELAPSED USER TIME (SEC)      =   0.0000    
       ELAPSED SYSTEM TIME (SEC)    =   0.0000    
       ELAPSED TOTAL CPU TIME (SEC) =   0.0000    
       ELAPSED WALLCLOCK TIME (SEC) =          0

               CONVERGENCE CHECKS FOR EQUILIBRIUM ITERATION     1

   MAX. PENETRATION ERROR 1.12066E-12 AT NODE PART-2-1.12 OF CONTACT PAIR 
   (GENERAL_CONTACT_EDGES_2,GENERAL_CONTACT_FACES_1)
   MAX. CONTACT FORCE ERROR 94.5243E-12  AT NODE PART-2-1.12 OF CONTACT PAIR 
   (GENERAL_CONTACT_EDGES_2,GENERAL_CONTACT_FACES_1)
          THE CONTACT CONSTRAINTS HAVE CONVERGED.

 AVERAGE FORCE                      3.776E-02   TIME AVG. FORCE       1.237E-02
 LARGEST RESIDUAL FORCE             0.461       AT NODE        110   DOF  3
   INSTANCE: PART-1-1                                                                        
 LARGEST INCREMENT OF DISP.         -1.69       AT NODE         11   DOF  3
   INSTANCE: PART-1-2                                                                        
 LARGEST CORRECTION TO DISP.       -0.174       AT NODE        116   DOF  3
   INSTANCE: PART-2-1                                                                        
          FORCE     EQUILIBRIUM NOT ACHIEVED WITHIN TOLERANCE.

 AVERAGE MOMENT                     1.165E-02   TIME AVG. MOMENT      6.221E-03
 LARGEST RESIDUAL MOMENT           -4.086E-02   AT NODE        109   DOF  5
   INSTANCE: PART-2-1                                                                        
 LARGEST INCREMENT OF ROTATION      2.288E-02   AT NODE        111   DOF  5
   INSTANCE: PART-2-1                                                                        
 LARGEST CORRECTION TO ROTATION     1.275E-02   AT NODE        111   DOF  5
   INSTANCE: PART-2-1                                                                        
          MOMENT    EQUILIBRIUM NOT ACHIEVED WITHIN TOLERANCE.
 
	SYMMETRIC DIRECT SPARSE SOLVER RUNNING ON
 	1 HOST:        1 MPI RANK  x 2 THREADS
 	NUMBER OF EQUATIONS:     2778
 	NUMBER OF RHS:           1
 	NUMBER OF FLOPS:         3.675e+07

     CHECK POINT   START OF SOLVER    

     CHECK POINT  END OF SOLVER       

       ELAPSED USER TIME (SEC)      =   0.0000    
       ELAPSED SYSTEM TIME (SEC)    =   0.0000    
       ELAPSED TOTAL CPU TIME (SEC) =   0.0000    
       ELAPSED WALLCLOCK TIME (SEC) =          0

               CONVERGENCE CHECKS FOR EQUILIBRIUM ITERATION     2

   MAX. PENETRATION ERROR 225.878E-15   AT NODE PART-2-1.89 OF CONTACT PAIR 
   (GENERAL_CONTACT_EDGES_2,GENERAL_CONTACT_FACES_1)
   MAX. CONTACT FORCE ERROR 21.4337E-12  AT NODE PART-2-1.89 OF CONTACT PAIR 
   (GENERAL_CONTACT_EDGES_2,GENERAL_CONTACT_FACES_1)
          THE CONTACT CONSTRAINTS HAVE CONVERGED.

 AVERAGE FORCE                      3.290E-02   TIME AVG. FORCE       1.140E-02
 LARGEST RESIDUAL FORCE             5.763E-03   AT NODE        110   DOF  3
   INSTANCE: PART-1-1                                                                        
 LARGEST INCREMENT OF DISP.         -1.69       AT NODE         11   DOF  3
   INSTANCE: PART-1-2                                                                        
 LARGEST CORRECTION TO DISP.       -2.019E-02   AT NODE          6   DOF  3
   INSTANCE: PART-2-1                                                                        
          FORCE     EQUILIBRIUM NOT ACHIEVED WITHIN TOLERANCE.

 AVERAGE MOMENT                     1.211E-02   TIME AVG. MOMENT      6.312E-03
 LARGEST RESIDUAL MOMENT            6.515E-04   AT NODE         13   DOF  5
   INSTANCE: PART-2-1                                                                        
 LARGEST INCREMENT OF ROTATION      2.422E-02   AT NODE        111   DOF  5
   INSTANCE: PART-2-1                                                                        
 LARGEST CORRECTION TO ROTATION     1.339E-03   AT NODE        111   DOF  5
   INSTANCE: PART-2-1                                                                        
          MOMENT    EQUILIBRIUM NOT ACHIEVED WITHIN TOLERANCE.
 
	SYMMETRIC DIRECT SPARSE SOLVER RUNNING ON
 	1 HOST:        1 MPI RANK  x 2 THREADS
 	NUMBER OF EQUATIONS:     2778
 	NUMBER OF RHS:           1
 	NUMBER OF FLOPS:         3.675e+07

     CHECK POINT   START OF SOLVER    

     CHECK POINT  END OF SOLVER       

       ELAPSED USER TIME (SEC)      =  0.10000    
       ELAPSED SYSTEM TIME (SEC)    =   0.0000    
       ELAPSED TOTAL CPU TIME (SEC) =  0.10000    
       ELAPSED WALLCLOCK TIME (SEC) =          0
 

 ***WARNING: THE SYSTEM MATRIX HAS 1 NEGATIVE EIGENVALUES.
             EXPLANATIONS ARE SUGGESTED AFTER THE FIRST OCCURRENCE OF THIS MESSAGE.

               CONVERGENCE CHECKS FOR EQUILIBRIUM ITERATION     3

   MAX. PENETRATION ERROR 29.8329E-15  AT NODE PART-2-1.89 OF CONTACT PAIR 
   (GENERAL_CONTACT_EDGES_2,GENERAL_CONTACT_FACES_1)
   MAX. CONTACT FORCE ERROR 2.83086E-12 AT NODE PART-2-1.89 OF CONTACT PAIR 
   (GENERAL_CONTACT_EDGES_2,GENERAL_CONTACT_FACES_1)
          THE CONTACT CONSTRAINTS HAVE CONVERGED.

 AVERAGE FORCE                      3.266E-02   TIME AVG. FORCE       1.135E-02
 LARGEST RESIDUAL FORCE             4.573E-03   AT NODE         22   DOF  3
   INSTANCE: PART-1-1                                                                        
 LARGEST INCREMENT OF DISP.         -1.69       AT NODE         11   DOF  3
   INSTANCE: PART-1-2                                                                        
 LARGEST CORRECTION TO DISP.        1.907E-02   AT NODE          6   DOF  1
   INSTANCE: PART-2-1                                                                        
          FORCE     EQUILIBRIUM NOT ACHIEVED WITHIN TOLERANCE.

 AVERAGE MOMENT                     1.356E-02   TIME AVG. MOMENT      6.603E-03
 LARGEST RESIDUAL MOMENT            4.344E-06   AT NODE         57   DOF  5
   INSTANCE: PART-2-1                                                                        
 LARGEST INCREMENT OF ROTATION     -2.552E-02   AT NODE         11   DOF  5
   INSTANCE: PART-1-1                                                                        
 LARGEST CORRECTION TO ROTATION    -1.309E-03   AT NODE        121   DOF  5
   INSTANCE: PART-1-1                                                                        
 ESTIMATE OF ROTATION CORRECTION   -8.725E-06
 MOMENT    EQUILIB. ACCEPTED BASED ON SMALL RESIDUAL AND ESTIMATED CORRECTION
 
	SYMMETRIC DIRECT SPARSE SOLVER RUNNING ON
 	1 HOST:        1 MPI RANK  x 2 THREADS
 	NUMBER OF EQUATIONS:     2778
 	NUMBER OF RHS:           1
 	NUMBER OF FLOPS:         3.675e+07

     CHECK POINT   START OF SOLVER    

     CHECK POINT  END OF SOLVER       

       ELAPSED USER TIME (SEC)      =   0.0000    
       ELAPSED SYSTEM TIME (SEC)    =   0.0000    
       ELAPSED TOTAL CPU TIME (SEC) =   0.0000    
       ELAPSED WALLCLOCK TIME (SEC) =          0
 

 ***WARNING: THE SYSTEM MATRIX HAS 1 NEGATIVE EIGENVALUES.
             EXPLANATIONS ARE SUGGESTED AFTER THE FIRST OCCURRENCE OF THIS MESSAGE.

               CONVERGENCE CHECKS FOR EQUILIBRIUM ITERATION     4

   MAX. PENETRATION ERROR 2.49701E-15 AT NODE PART-2-1.89 OF CONTACT PAIR 
   (GENERAL_CONTACT_EDGES_2,GENERAL_CONTACT_FACES_1)
   MAX. CONTACT FORCE ERROR 236.943E-15   AT NODE PART-2-1.89 OF CONTACT PAIR 
   (GENERAL_CONTACT_EDGES_2,GENERAL_CONTACT_FACES_1)
          THE CONTACT CONSTRAINTS HAVE CONVERGED.

 AVERAGE FORCE                      3.297E-02   TIME AVG. FORCE       1.141E-02
 LARGEST RESIDUAL FORCE             4.154E-06   AT NODE        100   DOF  1
   INSTANCE: PART-1-1                                                                        
 LARGEST INCREMENT OF DISP.         -1.69       AT NODE         11   DOF  3
   INSTANCE: PART-1-2                                                                        
 LARGEST CORRECTION TO DISP.       -1.994E-03   AT NODE         11   DOF  1
   INSTANCE: PART-1-1                                                                        
          THE FORCE     EQUILIBRIUM EQUATIONS HAVE CONVERGED

 AVERAGE MOMENT                     1.370E-02   TIME AVG. MOMENT      6.630E-03
 LARGEST RESIDUAL MOMENT            1.731E-07   AT NODE        101   DOF  5
   INSTANCE: PART-2-1                                                                        
 LARGEST INCREMENT OF ROTATION     -2.551E-02   AT NODE         11   DOF  5
   INSTANCE: PART-1-1                                                                        
 LARGEST CORRECTION TO ROTATION     3.768E-05   AT NODE        111   DOF  5
   INSTANCE: PART-2-1                                                                        
          THE MOMENT    EQUILIBRIUM EQUATIONS HAVE CONVERGED
          TIME INCREMENT MAY NOW INCREASE TO    3.164E-02

 ITERATION SUMMARY FOR THE INCREMENT:   4 TOTAL ITERATIONS, OF WHICH
   0 ARE SEVERE DISCONTINUITY ITERATIONS AND  4 ARE EQUILIBRIUM ITERATIONS.

 TIME INCREMENT COMPLETED  2.109E-02,  FRACTION OF STEP COMPLETED  5.703E-02
 STEP TIME COMPLETED       5.703E-02,  TOTAL TIME COMPLETED        5.703E-02


  INCREMENT     6 STARTS. ATTEMPT NUMBER  1, TIME INCREMENT  3.164E-02
 
	SYMMETRIC DIRECT SPARSE SOLVER RUNNING ON
 	1 HOST:        1 MPI RANK  x 2 THREADS
 	NUMBER OF EQUATIONS:     2778
 	NUMBER OF RHS:           1
 	NUMBER OF FLOPS:         3.675e+07

     CHECK POINT   START OF SOLVER    

     CHECK POINT  END OF SOLVER       

       ELAPSED USER TIME (SEC)      =   0.0000    
       ELAPSED SYSTEM TIME (SEC)    =   0.0000    
       ELAPSED TOTAL CPU TIME (SEC) =   0.0000    
       ELAPSED WALLCLOCK TIME (SEC) =          0

               CONVERGENCE CHECKS FOR EQUILIBRIUM ITERATION     1

   MAX. PENETRATION ERROR 2.06678E-12 AT NODE PART-2-1.12 OF CONTACT PAIR 
   (GENERAL_CONTACT_EDGES_2,GENERAL_CONTACT_FACES_1)
   MAX. CONTACT FORCE ERROR 174.327E-12   AT NODE PART-2-1.12 OF CONTACT PAIR 
   (GENERAL_CONTACT_EDGES_2,GENERAL_CONTACT_FACES_1)
          THE CONTACT CONSTRAINTS HAVE CONVERGED.

 AVERAGE FORCE                      6.618E-02   TIME AVG. FORCE       2.054E-02
 LARGEST RESIDUAL FORCE             0.555       AT NODE        110   DOF  3
   INSTANCE: PART-1-1                                                                        
 LARGEST INCREMENT OF DISP.         -2.53       AT NODE         11   DOF  3
   INSTANCE: PART-1-2                                                                        
 LARGEST CORRECTION TO DISP.        0.216       AT NODE          6   DOF  1
   INSTANCE: PART-1-1                                                                        
          FORCE     EQUILIBRIUM NOT ACHIEVED WITHIN TOLERANCE.

 AVERAGE MOMENT                     1.897E-02   TIME AVG. MOMENT      8.686E-03
 LARGEST RESIDUAL MOMENT           -0.125       AT NODE         13   DOF  5
   INSTANCE: PART-2-1                                                                        
 LARGEST INCREMENT OF ROTATION     -2.775E-02   AT NODE        112   DOF  5
   INSTANCE: PART-1-1                                                                        
 LARGEST CORRECTION TO ROTATION    -1.410E-02   AT NODE        111   DOF  5
   INSTANCE: PART-2-1                                                                        
          MOMENT    EQUILIBRIUM NOT ACHIEVED WITHIN TOLERANCE.
 
	SYMMETRIC DIRECT SPARSE SOLVER RUNNING ON
 	1 HOST:        1 MPI RANK  x 2 THREADS
 	NUMBER OF EQUATIONS:     2778
 	NUMBER OF RHS:           1
 	NUMBER OF FLOPS:         3.675e+07

     CHECK POINT   START OF SOLVER    

     CHECK POINT  END OF SOLVER       

       ELAPSED USER TIME (SEC)      =   0.0000    
       ELAPSED SYSTEM TIME (SEC)    =   0.0000    
       ELAPSED TOTAL CPU TIME (SEC) =   0.0000    
       ELAPSED WALLCLOCK TIME (SEC) =          0

               CONVERGENCE CHECKS FOR EQUILIBRIUM ITERATION     2

   MAX. PENETRATION ERROR 379.951E-15   AT NODE PART-2-1.34 OF CONTACT PAIR 
   (GENERAL_CONTACT_EDGES_2,GENERAL_CONTACT_FACES_1)
   MAX. CONTACT FORCE ERROR 32.0479E-12  AT NODE PART-2-1.34 OF CONTACT PAIR 
   (GENERAL_CONTACT_EDGES_2,GENERAL_CONTACT_FACES_1)
          THE CONTACT CONSTRAINTS HAVE CONVERGED.

 AVERAGE FORCE                      6.759E-02   TIME AVG. FORCE       2.077E-02
 LARGEST RESIDUAL FORCE             1.336E-02   AT NODE         56   DOF  1
   INSTANCE: PART-1-1                                                                        
 LARGEST INCREMENT OF DISP.         -2.53       AT NODE         11   DOF  3
   INSTANCE: PART-1-2                                                                        
 LARGEST CORRECTION TO DISP.        3.331E-02   AT NODE        116   DOF  1
   INSTANCE: PART-1-1                                                                        
          FORCE     EQUILIBRIUM NOT ACHIEVED WITHIN TOLERANCE.

 AVERAGE MOMENT                     1.413E-02   TIME AVG. MOMENT      7.880E-03
 LARGEST RESIDUAL MOMENT           -1.217E-03   AT NODE        101   DOF  5
   INSTANCE: PART-2-1                                                                        
 LARGEST INCREMENT OF ROTATION     -2.958E-02   AT NODE        111   DOF  5
   INSTANCE: PART-1-1                                                                        
 LARGEST CORRECTION TO ROTATION    -1.995E-03   AT NODE         56   DOF  5
   INSTANCE: PART-1-2                                                                        
          MOMENT    EQUILIBRIUM NOT ACHIEVED WITHIN TOLERANCE.
 
	SYMMETRIC DIRECT SPARSE SOLVER RUNNING ON
 	1 HOST:        1 MPI RANK  x 2 THREADS
 	NUMBER OF EQUATIONS:     2778
 	NUMBER OF RHS:           1
 	NUMBER OF FLOPS:         3.675e+07

     CHECK POINT   START OF SOLVER    

     CHECK POINT  END OF SOLVER       

       ELAPSED USER TIME (SEC)      =   0.0000    
       ELAPSED SYSTEM TIME (SEC)    =   0.0000    
       ELAPSED TOTAL CPU TIME (SEC) =   0.0000    
       ELAPSED WALLCLOCK TIME (SEC) =          0
 

 ***WARNING: THE SYSTEM MATRIX HAS 1 NEGATIVE EIGENVALUES.
             EXPLANATIONS ARE SUGGESTED AFTER THE FIRST OCCURRENCE OF THIS MESSAGE.

               CONVERGENCE CHECKS FOR EQUILIBRIUM ITERATION     3

   MAX. PENETRATION ERROR -37.6553E-15  AT NODE PART-1-1.33 OF CONTACT PAIR 
   (GENERAL_CONTACT_EDGES_5,GENERAL_CONTACT_FACES_1)
   MAX. CONTACT FORCE ERROR -3.57316E-12 AT NODE PART-1-1.33 OF CONTACT PAIR 
   (GENERAL_CONTACT_EDGES_5,GENERAL_CONTACT_FACES_1)
          THE CONTACT CONSTRAINTS HAVE CONVERGED.

 AVERAGE FORCE                      6.771E-02   TIME AVG. FORCE       2.079E-02
 LARGEST RESIDUAL FORCE            -2.478E-02   AT NODE         22   DOF  1
   INSTANCE: PART-2-1                                                                        
 LARGEST INCREMENT OF DISP.         -2.53       AT NODE         11   DOF  3
   INSTANCE: PART-1-2                                                                        
 LARGEST CORRECTION TO DISP.       -6.658E-02   AT NODE          5   DOF  1
   INSTANCE: PART-2-1                                                                        
          FORCE     EQUILIBRIUM NOT ACHIEVED WITHIN TOLERANCE.

 AVERAGE MOMENT                     1.296E-02   TIME AVG. MOMENT      7.685E-03
 LARGEST RESIDUAL MOMENT           -2.915E-05   AT NODE         21   DOF  5
   INSTANCE: PART-2-1                                                                        
 LARGEST INCREMENT OF ROTATION      3.163E-02   AT NODE         11   DOF  5
   INSTANCE: PART-2-1                                                                        
 LARGEST CORRECTION TO ROTATION     3.064E-03   AT NODE        121   DOF  5
   INSTANCE: PART-1-1                                                                        
 ESTIMATE OF ROTATION CORRECTION    7.337E-05
 MOMENT    EQUILIB. ACCEPTED BASED ON SMALL RESIDUAL AND ESTIMATED CORRECTION
 
	SYMMETRIC DIRECT SPARSE SOLVER RUNNING ON
 	1 HOST:        1 MPI RANK  x 2 THREADS
 	NUMBER OF EQUATIONS:     2778
 	NUMBER OF RHS:           1
 	NUMBER OF FLOPS:         3.675e+07

     CHECK POINT   START OF SOLVER    

     CHECK POINT  END OF SOLVER       

       ELAPSED USER TIME (SEC)      =  0.10000    
       ELAPSED SYSTEM TIME (SEC)    =   0.0000    
       ELAPSED TOTAL CPU TIME (SEC) =  0.10000    
       ELAPSED WALLCLOCK TIME (SEC) =          0
 

 ***WARNING: THE SYSTEM MATRIX HAS 1 NEGATIVE EIGENVALUES.
             EXPLANATIONS ARE SUGGESTED AFTER THE FIRST OCCURRENCE OF THIS MESSAGE.

               CONVERGENCE CHECKS FOR EQUILIBRIUM ITERATION     4

   MAX. PENETRATION ERROR 10.9013E-15  AT NODE PART-1-1.44 OF CONTACT PAIR 
   (GENERAL_CONTACT_EDGES_5,GENERAL_CONTACT_FACES_1)
   MAX. CONTACT FORCE ERROR 919.497E-15   AT NODE PART-1-1.44 OF CONTACT PAIR 
   (GENERAL_CONTACT_EDGES_5,GENERAL_CONTACT_FACES_1)
          THE CONTACT CONSTRAINTS HAVE CONVERGED.

 AVERAGE FORCE                      6.908E-02   TIME AVG. FORCE       2.102E-02
 LARGEST RESIDUAL FORCE             2.989E-05   AT NODE        100   DOF  1
   INSTANCE: PART-1-1                                                                        
 LARGEST INCREMENT OF DISP.         -2.53       AT NODE         11   DOF  3
   INSTANCE: PART-1-2                                                                        
 LARGEST CORRECTION TO DISP.        2.590E-03   AT NODE        117   DOF  1
   INSTANCE: PART-1-1                                                                        
          THE FORCE     EQUILIBRIUM EQUATIONS HAVE CONVERGED

 AVERAGE MOMENT                     1.314E-02   TIME AVG. MOMENT      7.716E-03
 LARGEST RESIDUAL MOMENT            1.726E-06   AT NODE        109   DOF  5
   INSTANCE: PART-1-1                                                                        
 LARGEST INCREMENT OF ROTATION      3.168E-02   AT NODE         11   DOF  5
   INSTANCE: PART-2-1                                                                        
 LARGEST CORRECTION TO ROTATION    -1.011E-04   AT NODE          1   DOF  5
   INSTANCE: PART-2-1                                                                        
          THE MOMENT    EQUILIBRIUM EQUATIONS HAVE CONVERGED
          TIME INCREMENT MAY NOW INCREASE TO    4.746E-02

 ITERATION SUMMARY FOR THE INCREMENT:   4 TOTAL ITERATIONS, OF WHICH
   0 ARE SEVERE DISCONTINUITY ITERATIONS AND  4 ARE EQUILIBRIUM ITERATIONS.

 TIME INCREMENT COMPLETED  3.164E-02,  FRACTION OF STEP COMPLETED  8.867E-02
 STEP TIME COMPLETED       8.867E-02,  TOTAL TIME COMPLETED        8.867E-02


  INCREMENT     7 STARTS. ATTEMPT NUMBER  1, TIME INCREMENT  4.746E-02
 
	SYMMETRIC DIRECT SPARSE SOLVER RUNNING ON
 	1 HOST:        1 MPI RANK  x 2 THREADS
 	NUMBER OF EQUATIONS:     2778
 	NUMBER OF RHS:           1
 	NUMBER OF FLOPS:         3.675e+07

     CHECK POINT   START OF SOLVER    

     CHECK POINT  END OF SOLVER       

       ELAPSED USER TIME (SEC)      =   0.0000    
       ELAPSED SYSTEM TIME (SEC)    =   0.0000    
       ELAPSED TOTAL CPU TIME (SEC) =   0.0000    
       ELAPSED WALLCLOCK TIME (SEC) =          0
 

 ***WARNING: THE SYSTEM MATRIX HAS 1 NEGATIVE EIGENVALUES.
             EXPLANATIONS ARE SUGGESTED AFTER THE FIRST OCCURRENCE OF THIS MESSAGE.

               CONVERGENCE CHECKS FOR EQUILIBRIUM ITERATION     1

[...]
       ELAPSED TOTAL CPU TIME (SEC) =  0.10000    
       ELAPSED WALLCLOCK TIME (SEC) =          0

                    3 SEVERE DISCONTINUITIES OCCURRED DURING THIS ITERATION.
                    1 POINTS CHANGED FROM OPEN TO CLOSED
                    2 POINTS CHANGED FROM CLOSED TO OPEN

               CONVERGENCE CHECKS FOR SEVERE DISCONTINUITY ITERATION     3

   MAX. PENETRATION ERROR 1.56762E-06 AT NODE PART-1-2.62 OF CONTACT PAIR 
   (GENERAL_CONTACT_FACES_4,GENERAL_CONTACT_FACES_1)
   MAX. CONTACT FORCE ERROR -731.026E-06   AT NODE PART-1-2.19 OF CONTACT PAIR 
   (GENERAL_CONTACT_FACES_4,GENERAL_CONTACT_FACES_1)
          THE CONTACT CONSTRAINT ERRORS ARE WITHIN THE TOLERANCES.

 AVERAGE FORCE                      3.646E-05   TIME AVG. FORCE       9.243E-04
 LARGEST RESIDUAL FORCE             4.169E-04   AT NODE         19   DOF  3
   INSTANCE: PART-1-2                                                                        
 LARGEST INCREMENT OF DISP.          2.01       AT NODE          1   DOF  1
   INSTANCE: PART-1-3                                                                        
 LARGEST CORRECTION TO DISP.       -9.674E-05   AT NODE          4   DOF  3
   INSTANCE: PART-1-2                                                                        
          FORCE     EQUILIBRIUM NOT ACHIEVED WITHIN TOLERANCE.

 AVERAGE MOMENT                     7.414E-04   TIME AVG. MOMENT      2.882E-03
 LARGEST RESIDUAL MOMENT            2.445E-09   AT NODE         30   DOF  6
   INSTANCE: PART-1-2                                                                        
 LARGEST INCREMENT OF ROTATION      3.827E-05   AT NODE          1   DOF  5
   INSTANCE: PART-1-2                                                                        
 LARGEST CORRECTION TO ROTATION     1.744E-05   AT NODE          6   DOF  5
   INSTANCE: PART-1-2                                                                        
          ROTATION CORRECTION TOO LARGE COMPARED TO ROTATION INCREMENT
 
	SYMMETRIC DIRECT SPARSE SOLVER RUNNING ON
 	1 HOST:        1 MPI RANK  x 2 THREADS
 	NUMBER OF EQUATIONS:     2778
 	NUMBER OF RHS:           1
 	NUMBER OF FLOPS:         4.225e+07

     CHECK POINT   START OF SOLVER    

     CHECK POINT  END OF SOLVER       

       ELAPSED USER TIME (SEC)      =   0.0000    
       ELAPSED SYSTEM TIME (SEC)    =   0.0000    
       ELAPSED TOTAL CPU TIME (SEC) =   0.0000    
       ELAPSED WALLCLOCK TIME (SEC) =          0

                    2 SEVERE DISCONTINUITIES OCCURRED DURING THIS ITERATION.
                    2 POINTS CHANGED FROM CLOSED TO OPEN

               CONVERGENCE CHECKS FOR SEVERE DISCONTINUITY ITERATION     4

   MAX. PENETRATION ERROR 345.695E-12   AT NODE PART-1-2.66 OF CONTACT PAIR 
   (GENERAL_CONTACT_FACES_4,GENERAL_CONTACT_FACES_1)
   MAX. CONTACT FORCE ERROR -353.639E-06   AT NODE PART-1-2.8 OF CONTACT PAIR 
   (GENERAL_CONTACT_FACES_4,GENERAL_CONTACT_FACES_1)
          THE CONTACT CONSTRAINT ERRORS ARE WITHIN THE TOLERANCES.

 AVERAGE FORCE                      3.634E-05   TIME AVG. FORCE       9.243E-04
 LARGEST RESIDUAL FORCE             1.991E-04   AT NODE          8   DOF  3
   INSTANCE: PART-1-2                                                                        
 LARGEST INCREMENT OF DISP.          2.01       AT NODE          1   DOF  1
   INSTANCE: PART-1-3                                                                        
 LARGEST CORRECTION TO DISP.        3.999E-05   AT NODE         31   DOF  3
   INSTANCE: PART-1-2                                                                        
          FORCE     EQUILIBRIUM NOT ACHIEVED WITHIN TOLERANCE.

 AVERAGE MOMENT                     7.475E-04   TIME AVG. MOMENT      2.882E-03
 LARGEST RESIDUAL MOMENT           -1.498E-09   AT NODE        107   DOF  6
   INSTANCE: PART-1-2                                                                        
 LARGEST INCREMENT OF ROTATION      3.949E-05   AT NODE          1   DOF  5
   INSTANCE: PART-1-2                                                                        
 LARGEST CORRECTION TO ROTATION     1.119E-05   AT NODE          8   DOF  4
   INSTANCE: PART-1-2                                                                        
          ROTATION CORRECTION TOO LARGE COMPARED TO ROTATION INCREMENT
 
	SYMMETRIC DIRECT SPARSE SOLVER RUNNING ON
 	1 HOST:        1 MPI RANK  x 2 THREADS
 	NUMBER OF EQUATIONS:     2778
 	NUMBER OF RHS:           1
 	NUMBER OF FLOPS:         4.225e+07

     CHECK POINT   START OF SOLVER    

     CHECK POINT  END OF SOLVER       

       ELAPSED USER TIME (SEC)      =  0.10000    
       ELAPSED SYSTEM TIME (SEC)    =   0.0000    
       ELAPSED TOTAL CPU TIME (SEC) =  0.10000    
       ELAPSED WALLCLOCK TIME (SEC) =          0

                    2 SEVERE DISCONTINUITIES OCCURRED DURING THIS ITERATION.
                    2 POINTS CHANGED FROM CLOSED TO OPEN

               CONVERGENCE CHECKS FOR SEVERE DISCONTINUITY ITERATION     5

   MAX. PENETRATION ERROR 433.662E-12   AT NODE PART-1-2.77 OF CONTACT PAIR 
   (GENERAL_CONTACT_FACES_4,GENERAL_CONTACT_FACES_1)
   MAX. CONTACT FORCE ERROR -35.2972E-06  AT NODE PART-1-2.18 OF CONTACT PAIR 
   (GENERAL_CONTACT_FACES_4,GENERAL_CONTACT_FACES_1)
          THE CONTACT CONSTRAINT ERRORS ARE WITHIN THE TOLERANCES.

 AVERAGE FORCE                      3.612E-05   TIME AVG. FORCE       9.243E-04
 LARGEST RESIDUAL FORCE             1.988E-05   AT NODE         18   DOF  3
   INSTANCE: PART-1-2                                                                        
 LARGEST INCREMENT OF DISP.          2.01       AT NODE          1   DOF  1
   INSTANCE: PART-1-3                                                                        
 LARGEST CORRECTION TO DISP.        8.083E-05   AT NODE          9   DOF  3
   INSTANCE: PART-1-2                                                                        
          FORCE     EQUILIBRIUM NOT ACHIEVED WITHIN TOLERANCE.

 AVERAGE MOMENT                     7.406E-04   TIME AVG. MOMENT      2.882E-03
 LARGEST RESIDUAL MOMENT            1.139E-09   AT NODE        109   DOF  6
   INSTANCE: PART-1-2                                                                        
 LARGEST INCREMENT OF ROTATION      4.070E-05   AT NODE          1   DOF  5
   INSTANCE: PART-1-2                                                                        
 LARGEST CORRECTION TO ROTATION     1.275E-05   AT NODE          8   DOF  5
   INSTANCE: PART-1-2                                                                        
          ROTATION CORRECTION TOO LARGE COMPARED TO ROTATION INCREMENT
 
	SYMMETRIC DIRECT SPARSE SOLVER RUNNING ON
 	1 HOST:        1 MPI RANK  x 2 THREADS
 	NUMBER OF EQUATIONS:     2778
 	NUMBER OF RHS:           1
 	NUMBER OF FLOPS:         4.225e+07

     CHECK POINT   START OF SOLVER    

     CHECK POINT  END OF SOLVER       

       ELAPSED USER TIME (SEC)      =  0.10000    
       ELAPSED SYSTEM TIME (SEC)    =   0.0000    
       ELAPSED TOTAL CPU TIME (SEC) =  0.10000    
       ELAPSED WALLCLOCK TIME (SEC) =          0

               CONVERGENCE CHECKS FOR EQUILIBRIUM ITERATION     1

   MAX. PENETRATION ERROR 30.6831E-12  AT NODE PART-1-2.11 OF CONTACT PAIR 
   (GENERAL_CONTACT_FACES_4,GENERAL_CONTACT_FACES_1)
   MAX. CONTACT FORCE ERROR 624.010E-12   AT NODE PART-1-2.66 OF CONTACT PAIR 
   (GENERAL_CONTACT_FACES_4,GENERAL_CONTACT_FACES_1)
          THE CONTACT CONSTRAINTS HAVE CONVERGED.

 AVERAGE FORCE                      3.612E-05   TIME AVG. FORCE       9.243E-04
 LARGEST RESIDUAL FORCE             1.201E-09   AT NODE        100   DOF  3
   INSTANCE: PART-1-1                                                                        
 LARGEST INCREMENT OF DISP.          2.01       AT NODE          1   DOF  1
   INSTANCE: PART-1-3                                                                        
 LARGEST CORRECTION TO DISP.       -9.322E-07   AT NODE          1   DOF  1
   INSTANCE: {assembly node}                                                                 
          THE FORCE     EQUILIBRIUM EQUATIONS HAVE CONVERGED

 AVERAGE MOMENT                     7.406E-04   TIME AVG. MOMENT      2.882E-03
 LARGEST RESIDUAL MOMENT           -2.332E-11   AT NODE         28   DOF  6
   INSTANCE: PART-1-1                                                                        
 LARGEST INCREMENT OF ROTATION      4.069E-05   AT NODE          1   DOF  5
   INSTANCE: PART-1-2                                                                        
 LARGEST CORRECTION TO ROTATION    -3.915E-07   AT NODE        117   DOF  4
   INSTANCE: PART-1-2                                                                        
          THE MOMENT    EQUILIBRIUM RESPONSE WAS LINEAR IN THIS INCREMENT
          TIME INCREMENT MAY NOW INCREASE TO    8.658E-02

 ITERATION SUMMARY FOR THE INCREMENT:   6 TOTAL ITERATIONS, OF WHICH
   5 ARE SEVERE DISCONTINUITY ITERATIONS AND  1 ARE EQUILIBRIUM ITERATIONS.

 TIME INCREMENT COMPLETED  5.772E-02,  FRACTION OF STEP COMPLETED  0.942    
 STEP TIME COMPLETED       0.942    ,  TOTAL TIME COMPLETED         1.94    


  INCREMENT    84 STARTS. ATTEMPT NUMBER  1, TIME INCREMENT  5.772E-02
 
	SYMMETRIC DIRECT SPARSE SOLVER RUNNING ON
 	1 HOST:        1 MPI RANK  x 2 THREADS
 	NUMBER OF EQUATIONS:     2778
 	NUMBER OF RHS:           1
 	NUMBER OF FLOPS:         4.225e+07

     CHECK POINT   START OF SOLVER    

     CHECK POINT  END OF SOLVER       

       ELAPSED USER TIME (SEC)      =   0.0000    
       ELAPSED SYSTEM TIME (SEC)    =   0.0000    
       ELAPSED TOTAL CPU TIME (SEC) =   0.0000    
       ELAPSED WALLCLOCK TIME (SEC) =          0

                    9 SEVERE DISCONTINUITIES OCCURRED DURING THIS ITERATION.
                    4 POINTS CHANGED FROM OPEN TO CLOSED
                    5 POINTS CHANGED FROM CLOSED TO OPEN

               CONVERGENCE CHECKS FOR SEVERE DISCONTINUITY ITERATION     1

   MAX. PENETRATION ERROR 3.55375E-06 AT NODE PART-1-2.18 OF CONTACT PAIR 
   (GENERAL_CONTACT_FACES_4,GENERAL_CONTACT_FACES_1)
   MAX. CONTACT FORCE ERROR -177.055E-06   AT NODE PART-1-2.17 OF CONTACT PAIR 
   (GENERAL_CONTACT_FACES_4,GENERAL_CONTACT_FACES_1)
          THE CONTACT CONSTRAINT ERRORS ARE WITHIN THE TOLERANCES.

 AVERAGE FORCE                      3.645E-05   TIME AVG. FORCE       9.137E-04
 LARGEST RESIDUAL FORCE             9.986E-05   AT NODE        105   DOF  3
   INSTANCE: PART-1-2                                                                        
 LARGEST INCREMENT OF DISP.          2.01       AT NODE          7   DOF  1
   INSTANCE: PART-1-3                                                                        
 LARGEST CORRECTION TO DISP.        1.173E-03   AT NODE         66   DOF  1
   INSTANCE: PART-1-2                                                                        
          FORCE     EQUILIBRIUM NOT ACHIEVED WITHIN TOLERANCE.

 AVERAGE MOMENT                     7.845E-04   TIME AVG. MOMENT      2.857E-03
 LARGEST RESIDUAL MOMENT           -1.134E-08   AT NODE        113   DOF  6
   INSTANCE: PART-1-2                                                                        
 LARGEST INCREMENT OF ROTATION      1.242E-04   AT NODE        111   DOF  5
   INSTANCE: PART-1-2                                                                        
 LARGEST CORRECTION TO ROTATION     8.352E-05   AT NODE        111   DOF  5
   INSTANCE: PART-1-2                                                                        
          ROTATION CORRECTION TOO LARGE COMPARED TO ROTATION INCREMENT
 
	SYMMETRIC DIRECT SPARSE SOLVER RUNNING ON
 	1 HOST:        1 MPI RANK  x 2 THREADS
 	NUMBER OF EQUATIONS:     2778
 	NUMBER OF RHS:           1
 	NUMBER OF FLOPS:         4.225e+07

     CHECK POINT   START OF SOLVER    

     CHECK POINT  END OF SOLVER       

       ELAPSED USER TIME (SEC)      =  0.10000    
       ELAPSED SYSTEM TIME (SEC)    =   0.0000    
       ELAPSED TOTAL CPU TIME (SEC) =  0.10000    
       ELAPSED WALLCLOCK TIME (SEC) =          0

                    2 SEVERE DISCONTINUITIES OCCURRED DURING THIS ITERATION.
                    2 POINTS CHANGED FROM OPEN TO CLOSED

               CONVERGENCE CHECKS FOR SEVERE DISCONTINUITY ITERATION     2

   MAX. PENETRATION ERROR 1.70567E-06 AT NODE PART-1-2.39 OF CONTACT PAIR 
   (GENERAL_CONTACT_FACES_4,GENERAL_CONTACT_FACES_1)
   MAX. CONTACT FORCE ERROR 71.9335E-06  AT NODE PART-1-2.39 OF CONTACT PAIR 
   (GENERAL_CONTACT_FACES_4,GENERAL_CONTACT_FACES_1)
          THE CONTACT CONSTRAINT ERRORS ARE WITHIN THE TOLERANCES.

 AVERAGE FORCE                      3.642E-05   TIME AVG. FORCE       9.137E-04
 LARGEST RESIDUAL FORCE            -1.038E-06   AT NODE         24   DOF  3
   INSTANCE: PART-1-2                                                                        
 LARGEST INCREMENT OF DISP.          2.01       AT NODE          7   DOF  1
   INSTANCE: PART-1-3                                                                        
 LARGEST CORRECTION TO DISP.        3.307E-04   AT NODE         65   DOF  1
   INSTANCE: PART-1-2                                                                        
          THE FORCE     EQUILIBRIUM EQUATIONS HAVE CONVERGED

 AVERAGE MOMENT                     7.828E-04   TIME AVG. MOMENT      2.857E-03
 LARGEST RESIDUAL MOMENT           -2.440E-10   AT NODE        117   DOF  6
   INSTANCE: PART-1-2                                                                        
 LARGEST INCREMENT OF ROTATION      1.243E-04   AT NODE        111   DOF  5
   INSTANCE: PART-1-2                                                                        
 LARGEST CORRECTION TO ROTATION     3.033E-06   AT NODE          6   DOF  4
   INSTANCE: PART-1-2                                                                        
          ROTATION CORRECTION TOO LARGE COMPARED TO ROTATION INCREMENT
 
	SYMMETRIC DIRECT SPARSE SOLVER RUNNING ON
 	1 HOST:        1 MPI RANK  x 2 THREADS
 	NUMBER OF EQUATIONS:     2778
 	NUMBER OF RHS:           1
 	NUMBER OF FLOPS:         4.225e+07

     CHECK POINT   START OF SOLVER    

     CHECK POINT  END OF SOLVER       

       ELAPSED USER TIME (SEC)      =   0.0000    
       ELAPSED SYSTEM TIME (SEC)    =   0.0000    
       ELAPSED TOTAL CPU TIME (SEC) =   0.0000    
       ELAPSED WALLCLOCK TIME (SEC) =          1

                    3 SEVERE DISCONTINUITIES OCCURRED DURING THIS ITERATION.
                    1 POINTS CHANGED FROM OPEN TO CLOSED
                    2 POINTS CHANGED FROM CLOSED TO OPEN

               CONVERGENCE CHECKS FOR SEVERE DISCONTINUITY ITERATION     3

   MAX. PENETRATION ERROR 547.107E-09   AT NODE PART-1-2.61 OF CONTACT PAIR 
   (GENERAL_CONTACT_FACES_4,GENERAL_CONTACT_FACES_1)
   MAX. CONTACT FORCE ERROR 23.0733E-06  AT NODE PART-1-2.61 OF CONTACT PAIR 
   (GENERAL_CONTACT_FACES_4,GENERAL_CONTACT_FACES_1)
          THE CONTACT CONSTRAINT ERRORS ARE WITHIN THE TOLERANCES.

 AVERAGE FORCE                      3.642E-05   TIME AVG. FORCE       9.137E-04
 LARGEST RESIDUAL FORCE             8.804E-06   AT NODE         94   DOF  3
   INSTANCE: PART-1-2                                                                        
 LARGEST INCREMENT OF DISP.          2.01       AT NODE          7   DOF  1
   INSTANCE: PART-1-3                                                                        
 LARGEST CORRECTION TO DISP.        2.295E-06   AT NODE         39   DOF  3
   INSTANCE: PART-1-2                                                                        
          FORCE     EQUILIBRIUM NOT ACHIEVED WITHIN TOLERANCE.

 AVERAGE MOMENT                     7.844E-04   TIME AVG. MOMENT      2.857E-03
 LARGEST RESIDUAL MOMENT            7.409E-11   AT NODE         48   DOF  6
   INSTANCE: PART-1-2                                                                        
 LARGEST INCREMENT OF ROTATION      1.242E-04   AT NODE        111   DOF  5
   INSTANCE: PART-1-2                                                                        
 LARGEST CORRECTION TO ROTATION    -6.759E-07   AT NODE         50   DOF  4
   INSTANCE: PART-1-2                                                                        
          THE MOMENT    EQUILIBRIUM EQUATIONS HAVE CONVERGED
 
	SYMMETRIC DIRECT SPARSE SOLVER RUNNING ON
 	1 HOST:        1 MPI RANK  x 2 THREADS
 	NUMBER OF EQUATIONS:     2778
 	NUMBER OF RHS:           1
 	NUMBER OF FLOPS:         4.225e+07

     CHECK POINT   START OF SOLVER    

     CHECK POINT  END OF SOLVER       

       ELAPSED USER TIME (SEC)      =  0.10000    
       ELAPSED SYSTEM TIME (SEC)    =   0.0000    
       ELAPSED TOTAL CPU TIME (SEC) =  0.10000    
       ELAPSED WALLCLOCK TIME (SEC) =          0

               CONVERGENCE CHECKS FOR EQUILIBRIUM ITERATION     1

   MAX. PENETRATION ERROR 48.3888E-12  AT NODE PART-1-2.1 OF CONTACT PAIR 
   (GENERAL_CONTACT_FACES_4,GENERAL_CONTACT_FACES_1)
   MAX. CONTACT FORCE ERROR 333.947E-12   AT NODE PART-1-2.56 OF CONTACT PAIR 
   (GENERAL_CONTACT_FACES_4,GENERAL_CONTACT_FACES_1)
          THE CONTACT CONSTRAINTS HAVE CONVERGED.

 AVERAGE FORCE                      3.641E-05   TIME AVG. FORCE       9.137E-04
 LARGEST RESIDUAL FORCE             1.428E-07   AT NODE         61   DOF  3
   INSTANCE: PART-1-2                                                                        
 LARGEST INCREMENT OF DISP.          2.01       AT NODE          7   DOF  1
   INSTANCE: PART-1-3                                                                        
 LARGEST CORRECTION TO DISP.        8.774E-07   AT NODE         93   DOF  3
   INSTANCE: PART-1-2                                                                        
          THE FORCE     EQUILIBRIUM EQUATIONS HAVE CONVERGED

 AVERAGE MOMENT                     7.844E-04   TIME AVG. MOMENT      2.857E-03
 LARGEST RESIDUAL MOMENT           -2.972E-11   AT NODE         49   DOF  6
   INSTANCE: PART-1-1                                                                        
 LARGEST INCREMENT OF ROTATION      1.243E-04   AT NODE        111   DOF  5
   INSTANCE: PART-1-2                                                                        
 LARGEST CORRECTION TO ROTATION    -2.304E-07   AT NODE         72   DOF  4
   INSTANCE: PART-1-2                                                                        
          THE MOMENT    EQUILIBRIUM EQUATIONS HAVE CONVERGED

 ITERATION SUMMARY FOR THE INCREMENT:   4 TOTAL ITERATIONS, OF WHICH
   3 ARE SEVERE DISCONTINUITY ITERATIONS AND  1 ARE EQUILIBRIUM ITERATIONS.

 TIME INCREMENT COMPLETED  5.772E-02,  FRACTION OF STEP COMPLETED   1.00    
 STEP TIME COMPLETED        1.00    ,  TOTAL TIME COMPLETED         2.00    


          THE ANALYSIS HAS BEEN COMPLETED



     ANALYSIS SUMMARY:
     TOTAL OF        308  INCREMENTS
                      54  CUTBACKS IN AUTOMATIC INCREMENTATION
                    1669  ITERATIONS INCLUDING CONTACT ITERATIONS IF PRESENT
                    1669  PASSES THROUGH THE EQUATION SOLVER OF WHICH 
                    1669  INVOLVE MATRIX DECOMPOSITION, INCLUDING
                       0  DECOMPOSITION(S) OF THE MASS MATRIX
                       1  REORDERING OF EQUATIONS TO MINIMIZE WAVEFRONT
                       0  ADDITIONAL RESIDUAL EVALUATIONS FOR LINE SEARCHES
                       0  ADDITIONAL OPERATOR EVALUATIONS FOR LINE SEARCHES
                     750  WARNING MESSAGES DURING USER INPUT PROCESSING
                     119  WARNING MESSAGES DURING ANALYSIS
                       0  ANALYSIS WARNINGS ARE NUMERICAL PROBLEM MESSAGES
                      93  ANALYSIS WARNINGS ARE NEGATIVE EIGENVALUE MESSAGES
                       0  ERROR MESSAGES



     JOB TIME SUMMARY
       USER TIME (SEC)      =   330.50    
       SYSTEM TIME (SEC)    =   50.500    
       TOTAL CPU TIME (SEC) =   381.00    
       WALLCLOCK TIME (SEC) =        306
