1

   Abaqus 2022                                  Date 19-Dez-2023   Time 16:37:59
   For use by MONTANUNIVERSITAT LEOBEN under license from Dassault Systemes or its subsidiary.

                                                                                 
                                                                                 
 STEP    1     INCREMENT     1     STEP TIME    0.00    


                        S T E P       1     D Y N A M I C   A N A L Y S I S - I M P L I C I T  I N T E G R A T I O N


                                                                                          

          DYNAMIC APPLICATION PACKED SCHEME IS                 MODERATE DISSIPATION
          HILBER-HUGHES-TAYLOR (HHT) TIME INTEGRATOR IS USED

     AUTOMATIC TIME CONTROL WITH -
          A SUGGESTED INITIAL TIME INCREMENT OF                0.100    
          AND A TOTAL TIME PERIOD OF                            1.00    
          THE MINIMUM TIME INCREMENT ALLOWED IS                1.000E-10
          THE MAXIMUM TIME INCREMENT ALLOWED IS                0.100    

          THE HALF-INCREMENT RESIDUALS WILL NOT BE CALCULATED

          INITIAL ACCELERATIONS WILL NOT BE CALCULATED

          HILBER-HUGHES-TAYLOR METHOD PARAMETERS:  ALPHA   IS  -0.414214    
                                                   BETA    IS   0.500000    
                                                   GAMMA   IS   0.914214    
          CONTACT IMPACT/RELEASE COMPUTATIONS ARE SKIPPED
          AGGRESSIVE   TIME INCREMENTATION IS USED
          STEP AMPLITUDE IS                                    STEP

 CONVERGENCE TOLERANCE PARAMETERS FOR FORCE    
     CRITERION FOR RESIDUAL FORCE     FOR A NONLINEAR PROBLEM          5.000E-03
     CRITERION FOR DISP.    CORRECTION IN A NONLINEAR PROBLEM          1.000E-02
     INITIAL VALUE OF TIME AVERAGE FORCE                               1.000E-02
     AVERAGE FORCE     IS TIME AVERAGE FORCE    
     ALTERNATE CRIT. FOR RESIDUAL FORCE     FOR A NONLINEAR PROBLEM    2.000E-02
     CRITERION FOR ZERO FORCE     RELATIVE TO TIME AVRG. FORCE         1.000E-05
     CRITERION FOR RESIDUAL FORCE     WHEN THERE IS ZERO FLUX          1.000E-05
     CRITERION FOR DISP.    CORRECTION WHEN THERE IS ZERO FLUX         1.000E-03
     CRITERION FOR RESIDUAL FORCE     FOR A LINEAR INCREMENT           1.000E-08
     FIELD CONVERSION RATIO                                             1.00    
     CRITERION FOR ZERO FORCE     REL. TO TIME AVRG. MAX. FORCE        1.000E-05
     CRITERION FOR ZERO DISP.    RELATIVE TO CHARACTERISTIC LENGTH     1.000E-08

 CONVERGENCE TOLERANCE PARAMETERS FOR MOMENT   
     CRITERION FOR RESIDUAL MOMENT    FOR A NONLINEAR PROBLEM          5.000E-03
     CRITERION FOR ROTATION CORRECTION IN A NONLINEAR PROBLEM          1.000E-02
     INITIAL VALUE OF TIME AVERAGE MOMENT                              1.000E-02
     AVERAGE MOMENT    IS TIME AVERAGE MOMENT   
     ALTERNATE CRIT. FOR RESIDUAL MOMENT    FOR A NONLINEAR PROBLEM    2.000E-02
     CRITERION FOR ZERO MOMENT    RELATIVE TO TIME AVRG. MOMENT        1.000E-05
     CRITERION FOR RESIDUAL MOMENT    WHEN THERE IS ZERO FLUX          1.000E-05
     CRITERION FOR ROTATION CORRECTION WHEN THERE IS ZERO FLUX         1.000E-03
     CRITERION FOR RESIDUAL MOMENT    FOR A LINEAR INCREMENT           1.000E-08
     FIELD CONVERSION RATIO                                             1.00    
     CRITERION FOR ZERO MOMENT    REL. TO TIME AVRG. MAX. MOMENT       1.000E-05

     VOLUMETRIC STRAIN COMPATIBILITY TOLERANCE FOR HYBRID SOLIDS       1.000E-05
     AXIAL STRAIN COMPATIBILITY TOLERANCE FOR HYBRID BEAMS             1.000E-05
     TRANS. SHEAR STRAIN COMPATIBILITY TOLERANCE FOR HYBRID BEAMS      1.000E-05
     SOFT CONTACT CONSTRAINT COMPATIBILITY TOLERANCE FOR P>P0          5.000E-03
     SOFT CONTACT CONSTRAINT COMPATIBILITY TOLERANCE FOR P=0.0         0.100    
     CONTACT FORCE ERROR TOLERANCE FOR CONVERT SDI=YES                 1.00    
     DISPLACEMENT COMPATIBILITY TOLERANCE FOR DCOUP ELEMENTS           1.000E-05
     ROTATION COMPATIBILITY TOLERANCE FOR DCOUP ELEMENTS               1.000E-05

 EQUILIBRIUM WILL BE CHECKED FOR SEVERE DISCONTINUITY ITERATIONS

 TIME INCREMENTATION CONTROL PARAMETERS:
     FIRST EQUILIBRIUM ITERATION FOR CONSECUTIVE DIVERGENCE CHECK              4
     EQUILIBRIUM ITERATION AT WHICH LOG. CONVERGENCE RATE CHECK BEGINS         8
     EQUILIBRIUM ITERATION AFTER WHICH ALTERNATE RESIDUAL IS USED              9
     MAXIMUM EQUILIBRIUM ITERATIONS ALLOWED                                   16
     EQUILIBRIUM ITERATION COUNT FOR CUT-BACK IN NEXT INCREMENT               10
     MAXIMUM EQUILIB. ITERS IN TWO INCREMENTS FOR TIME INCREMENT INCREASE      4
     MAXIMUM ITERATIONS FOR SEVERE DISCONTINUITIES                            50
     MAXIMUM ATTEMPTS ALLOWED IN AN INCREMENT                                  5
     MAXIMUM DISCON. ITERS IN TWO INCREMENTS FOR TIME INCREMENT INCREASE      50
     MAXIMUM CONTACT AUGMENTATIONS FOR *SURFACE BEHAVIOR,AUGMENTED LAGRANGE   50
     CUT-BACK FACTOR AFTER DIVERGENCE                                 0.2500    
     CUT-BACK FACTOR FOR TOO SLOW CONVERGENCE                         0.5000    
     CUT-BACK FACTOR AFTER TOO MANY EQUILIBRIUM ITERATIONS            0.7500    
     CUT-BACK FACTOR AFTER TOO MANY SEVERE DISCONTINUITY ITERATIONS   0.2500    
     CUT-BACK FACTOR AFTER PROBLEMS IN ELEMENT ASSEMBLY               0.2500    
     INCREASE FACTOR AFTER TWO INCREMENTS THAT CONVERGE QUICKLY        1.500    
     MAX. TIME INCREMENT INCREASE FACTOR ALLOWED                       1.500    
     MAX. TIME INCREMENT INCREASE FACTOR ALLOWED (DYNAMICS)            1.250    
     MAX. TIME INCREMENT INCREASE FACTOR ALLOWED (DIFFUSION)           2.000    
     MINIMUM TIME INCREMENT RATIO FOR EXTRAPOLATION TO OCCUR          0.1000    
     MAX. RATIO OF TIME INCREMENT TO STABILITY LIMIT                   1.000    
     FRACTION OF STABILITY LIMIT FOR NEW TIME INCREMENT               0.9500    
     TIME INCREMENT INCREASE FACTOR BEFORE A TIME POINT                1.000    

 CONTACT CONTROLS APPLIED TO ALL CONTACT PAIRS:
     GLOBAL STABILIZATION CONTROL IS NOT USED
     RELATIVE PENETRATION TOLERANCE FOR AUGMENTED LAGRANGE CONTACT:
          FINITE-SLIDING SURFACE-TO-SURFACE                            5.000E-02
          OTHERWISE                                                    1.000E-03

          PRINT OF INCREMENT NUMBER, TIME, ETC., EVERY    1  INCREMENTS

     THE MAXIMUM NUMBER OF INCREMENTS IN THIS STEP IS                   10000

     LINEAR EXTRAPOLATION WILL BE USED

     CHARACTERISTIC ELEMENT LENGTH      6.50    

     DETAILS REGARDING ACTUAL SOLUTION WAVEFRONT REQUESTED

     DETAILED OUTPUT OF DIAGNOSTICS TO DATABASE REQUESTED

     PRINT OF INCREMENT NUMBER, TIME, ETC., TO THE MESSAGE FILE EVERY     1  INCREMENTS

     ELEMENT OPERATIONS WILL BE CARRIED OUT IN PARALLEL USING   2 THREADS ON 1 DOMAIN

     PARALLEL CONTACT TRACKING ENABLED


     COLLECTING MODEL CONSTRAINT INFORMATION FOR OVERCONSTRAINT CHECKS

     COLLECTING STEP CONSTRAINT INFORMATION FOR OVERCONSTRAINT CHECKS

 ***WARNING: AT LEAST ONE OF THE NODES OF CONNECTOR ELEMENT 1 (ASSEMBLY) DOES 
             NOT HAVE ANY MASS ASSOCIATED WITH IT. THIS COULD LEAD TO EQUATION 
             SOLVER ISSUES (ZERO PIVOTS, NUMERICAL SINGULARITIES, etc.) AND 
             HENCE TO INCORRECT SOLUTIONS WHEN THE CONNECTOR ELEMENT IS 
             ENFORCING KINEMATIC CONSTRAINTS (FROM EITHER INTRINSIC, CONNECTOR 
             STOP/LOCK, or CONNECTOR MOTION). PLEASE ATTACH THE CONNECTOR NODES 
             TO ELEMENTS FOR WHICH MASS IS DEFINED (SUCH AS ELEMENTS TYPE MASS 
             WITH A SMALL MASS) TO RESOLVE THE PROBLEM.

 ***WARNING: AT LEAST ONE OF THE NODES OF CONNECTOR ELEMENT 1 (ASSEMBLY) DOES 
             NOT HAVE ANY ROTARY INERTIA ASSOCIATED WITH IT. THIS COULD LEAD TO 
             EQUATION SOLVER ISSUES (ZERO PIVOTS, NUMERICAL SINGULARITIES, 
             etc.) AND HENCE TO INCORRECT SOLUTIONS WHEN THE CONNECTOR ELEMENT 
             IS ENFORCING KINEMATIC CONSTRAINTS (FROM EITHER INTRINSIC, 
             CONNECTOR STOP/LOCK, or CONNECTOR MOTION). PLEASE ATTACH THE 
             CONNECTOR NODES TO ELEMENTS FOR WHICH ROTARY INERTIA IS DEFINED 
             (SUCH AS ELEMENTS TYPE ROTARYI) TO RESOLVE THE PROBLEM.


  INCREMENT     1 STARTS. ATTEMPT NUMBER  1, TIME INCREMENT  0.100    
 
     INITIAL ELEMENT LOAD BALANCE
            DOMAIN    1     THREAD    NUMBER OF ELEMENTS
                              1            336
                              2            321

 ***WARNING: THERE ARE 2 UNCONNECTED REGIONS IN THE MODEL.

 ***NOTE: SFM TYPE SURFACE ELEMENTS USED TO DEFINE CONTACT SURFACES NOT PART OF 
          A RIGID BODY MAY INCREASE THE NUMBER OR UNCONNECTED REGIONS REPORTED.
 
	SYMMETRIC DIRECT SPARSE SOLVER RUNNING ON
 	1 HOST:        1 MPI RANK  x 2 THREADS
 	NUMBER OF EQUATIONS:     2778
 	NUMBER OF RHS:           1
 	NUMBER OF FLOPS:         3.396e+07

     CHECK POINT   START OF SOLVER    

     CHECK POINT  END OF SOLVER       

       ELAPSED USER TIME (SEC)      =   0.0000    
       ELAPSED SYSTEM TIME (SEC)    =   0.0000    
       ELAPSED TOTAL CPU TIME (SEC) =   0.0000    
       ELAPSED WALLCLOCK TIME (SEC) =          0

 ***WARNING: A CONNECTOR TYPE AXIAL IS USED IN A  GEOMETRICALLY LINEAR 
             ANALYSIS. EXTRA CARE MUST BE EXERCISED IN INTERPRETING KINEMATIC 
             OUTPUT VARIABLES (SUCH AS CU, CP, etc.) ASSOCIATED WITH THIS 
             ELEMENT. AS A CONSEQUENCE, CONNECTOR STOPS/LOCKS AND KINETIC 
             BEHAVIOR FOR THIS ELEMENT MAY BE DIFFICULT TO INTERPRET.

                   74 SEVERE DISCONTINUITIES OCCURRED DURING THIS ITERATION.
                   74 POINTS CHANGED FROM OPEN TO CLOSED

               CONVERGENCE CHECKS FOR SEVERE DISCONTINUITY ITERATION     1

   MAX. PENETRATION ERROR 7.54668     AT NODE PART-2-1.111 OF CONTACT PAIR 
   (GENERAL_CONTACT_FACES_2,GENERAL_CONTACT_FACES_1)
   MAX. CONTACT FORCE ERROR 296.621       AT NODE PART-2-1.23 OF CONTACT PAIR 
   (GENERAL_CONTACT_EDGES_2,GENERAL_CONTACT_FACES_1)
          PENETRATION ERROR TOO LARGE COMPARED TO DISPLACEMENT INCREMENT.

 AVERAGE FORCE                      0.400       TIME AVG. FORCE       0.400    
 LARGEST RESIDUAL FORCE              8.66       AT NODE         99   DOF  3
   INSTANCE: PART-1-1                                                                        
 LARGEST INCREMENT OF DISP.         -8.04       AT NODE        114   DOF  3
   INSTANCE: PART-2-1                                                                        
 LARGEST CORRECTION TO DISP.        -8.04       AT NODE        114   DOF  3
   INSTANCE: PART-2-1                                                                        
          FORCE     EQUILIBRIUM NOT ACHIEVED WITHIN TOLERANCE.
 

 ***WARNING: THE AVERAGE FORCE USED TO ENFORCE CONTACT CONSTRAINTS AT NODE 
             PART-2-1.23 IS 10.1271E+03  TIMES LARGER THAN THE AVERAGE AT THE 
             OTHER NODES IN THE MODEL.

 AVERAGE MOMENT                     5.569E-04   TIME AVG. MOMENT      5.569E-04
 LARGEST RESIDUAL MOMENT            6.508E-12   AT NODE         77   DOF  5
   INSTANCE: PART-2-1                                                                        
 LARGEST INCREMENT OF ROTATION     -1.232E-03   AT NODE        121   DOF  5
   INSTANCE: PART-2-1                                                                        
 LARGEST CORRECTION TO ROTATION    -1.232E-03   AT NODE        121   DOF  5
   INSTANCE: PART-2-1                                                                        
          ROTATION CORRECTION TOO LARGE COMPARED TO ROTATION INCREMENT
 
	SYMMETRIC DIRECT SPARSE SOLVER RUNNING ON
 	1 HOST:        1 MPI RANK  x 2 THREADS
 	NUMBER OF EQUATIONS:     2778
 	NUMBER OF RHS:           1
 	NUMBER OF FLOPS:         3.734e+07

     CHECK POINT   START OF SOLVER    

     CHECK POINT  END OF SOLVER       

       ELAPSED USER TIME (SEC)      =   0.0000    
       ELAPSED SYSTEM TIME (SEC)    =   0.0000    
       ELAPSED TOTAL CPU TIME (SEC) =   0.0000    
       ELAPSED WALLCLOCK TIME (SEC) =          0
 

 ***WARNING: THE SYSTEM MATRIX HAS 1 NEGATIVE EIGENVALUES.

     NEGATIVE EIGENVALUES MEAN THAT THE SYSTEM MATRIX IS NOT 
     POSITIVE DEFINITE:
     FOR EXAMPLE, A BIFURCATION (BUCKLING) LOAD MAY HAVE BEEN EXCEEDED.

 ***WARNING: CONVERGENCE JUDGED UNLIKELY.  INCREMENT WILL BE ATTEMPTED AGAIN 
             WITH A TIME INCREMENT OF 2.50000E-02


  INCREMENT     1 STARTS. ATTEMPT NUMBER  2, TIME INCREMENT  2.500E-02
 
	SYMMETRIC DIRECT SPARSE SOLVER RUNNING ON
 	1 HOST:        1 MPI RANK  x 2 THREADS
 	NUMBER OF EQUATIONS:     2778
 	NUMBER OF RHS:           1
 	NUMBER OF FLOPS:         3.622e+07

     CHECK POINT   START OF SOLVER    

     CHECK POINT  END OF SOLVER       

       ELAPSED USER TIME (SEC)      =  0.10000    
       ELAPSED SYSTEM TIME (SEC)    =   0.0000    
       ELAPSED TOTAL CPU TIME (SEC) =  0.10000    
       ELAPSED WALLCLOCK TIME (SEC) =          0

 ***WARNING: A CONNECTOR TYPE AXIAL IS USED IN A  GEOMETRICALLY LINEAR 
             ANALYSIS. EXTRA CARE MUST BE EXERCISED IN INTERPRETING KINEMATIC 
             OUTPUT VARIABLES (SUCH AS CU, CP, etc.) ASSOCIATED WITH THIS 
             ELEMENT. AS A CONSEQUENCE, CONNECTOR STOPS/LOCKS AND KINETIC 
             BEHAVIOR FOR THIS ELEMENT MAY BE DIFFICULT TO INTERPRET.

                   44 SEVERE DISCONTINUITIES OCCURRED DURING THIS ITERATION.
                   44 POINTS CHANGED FROM OPEN TO CLOSED

               CONVERGENCE CHECKS FOR SEVERE DISCONTINUITY ITERATION     1

   MAX. PENETRATION ERROR 498.594E-03   AT NODE PART-2-1.56 OF CONTACT PAIR 
   (GENERAL_CONTACT_EDGES_2,GENERAL_CONTACT_FACES_1)
   MAX. CONTACT FORCE ERROR 42.0546      AT NODE PART-2-1.56 OF CONTACT PAIR 
   (GENERAL_CONTACT_EDGES_2,GENERAL_CONTACT_FACES_1)
          PENETRATION ERROR TOO LARGE COMPARED TO DISPLACEMENT INCREMENT.

 AVERAGE FORCE                      3.215E-02   TIME AVG. FORCE       3.215E-02
 LARGEST RESIDUAL FORCE             0.945       AT NODE         66   DOF  3
   INSTANCE: PART-1-1                                                                        
 LARGEST INCREMENT OF DISP.         -2.00       AT NODE         11   DOF  3
   INSTANCE: PART-1-2                                                                        
 LARGEST CORRECTION TO DISP.        -2.00       AT NODE         11   DOF  3
   INSTANCE: PART-1-2                                                                        
          FORCE     EQUILIBRIUM NOT ACHIEVED WITHIN TOLERANCE.

 AVERAGE MOMENT                     8.646E-05   TIME AVG. MOMENT      8.646E-05
 LARGEST RESIDUAL MOMENT            1.182E-12   AT NODE         47   DOF  5
   INSTANCE: PART-2-1                                                                        
 LARGEST INCREMENT OF ROTATION      1.427E-04   AT NODE        121   DOF  5
   INSTANCE: PART-2-1                                                                        
 LARGEST CORRECTION TO ROTATION     1.427E-04   AT NODE        121   DOF  5
   INSTANCE: PART-2-1                                                                        
          ROTATION CORRECTION TOO LARGE COMPARED TO ROTATION INCREMENT
 
	SYMMETRIC DIRECT SPARSE SOLVER RUNNING ON
 	1 HOST:        1 MPI RANK  x 2 THREADS
 	NUMBER OF EQUATIONS:     2778
 	NUMBER OF RHS:           1
 	NUMBER OF FLOPS:         3.624e+07

     CHECK POINT   START OF SOLVER    

     CHECK POINT  END OF SOLVER       

       ELAPSED USER TIME (SEC)      =  0.10000    
       ELAPSED SYSTEM TIME (SEC)    =   0.0000    
       ELAPSED TOTAL CPU TIME (SEC) =  0.10000    
       ELAPSED WALLCLOCK TIME (SEC) =          0

                   22 SEVERE DISCONTINUITIES OCCURRED DURING THIS ITERATION.
                   22 POINTS CHANGED FROM CLOSED TO OPEN

               CONVERGENCE CHECKS FOR SEVERE DISCONTINUITY ITERATION     2

   MAX. PENETRATION ERROR 555.766E-09   AT NODE PART-1-1.110 OF CONTACT PAIR 
   (GENERAL_CONTACT_EDGES_5,GENERAL_CONTACT_FACES_1)
   MAX. CONTACT FORCE ERROR -2.80564     AT NODE PART-1-1.33 OF CONTACT PAIR 
   (GENERAL_CONTACT_FACES_5,GENERAL_CONTACT_FACES_1)
          THE ESTIMATED CONTACT FORCE ERROR IS OUTSIDE OF CONVERGENCE TOLERANCES.

 AVERAGE FORCE                      7.948E-03   TIME AVG. FORCE       7.948E-03
 LARGEST RESIDUAL FORCE              2.97       AT NODE         33   DOF  3
   INSTANCE: PART-1-1                                                                        
 LARGEST INCREMENT OF DISP.         -5.46       AT NODE        115   DOF  3
   INSTANCE: PART-2-1                                                                        
 LARGEST CORRECTION TO DISP.         4.46       AT NODE        115   DOF  1
   INSTANCE: PART-2-1                                                                        
          FORCE     EQUILIBRIUM NOT ACHIEVED WITHIN TOLERANCE.

 AVERAGE MOMENT                     0.123       TIME AVG. MOMENT      0.123    
 LARGEST RESIDUAL MOMENT            2.963E-12   AT NODE         17   DOF  5
   INSTANCE: PART-1-1                                                                        
 LARGEST INCREMENT OF ROTATION     -0.407       AT NODE        121   DOF  5
   INSTANCE: PART-1-1                                                                        
 LARGEST CORRECTION TO ROTATION    -0.407       AT NODE        121   DOF  5
   INSTANCE: PART-1-1                                                                        
          THE MOMENT    EQUILIBRIUM EQUATIONS HAVE CONVERGED
 
	SYMMETRIC DIRECT SPARSE SOLVER RUNNING ON
 	1 HOST:        1 MPI RANK  x 2 THREADS
 	NUMBER OF EQUATIONS:     2778
 	NUMBER OF RHS:           1
 	NUMBER OF FLOPS:         3.612e+07

     CHECK POINT   START OF SOLVER    

     CHECK POINT  END OF SOLVER       

       ELAPSED USER TIME (SEC)      =  0.10000    
       ELAPSED SYSTEM TIME (SEC)    =   0.0000    
       ELAPSED TOTAL CPU TIME (SEC) =  0.10000    
       ELAPSED WALLCLOCK TIME (SEC) =          0

               CONVERGENCE CHECKS FOR EQUILIBRIUM ITERATION     1

   MAX. PENETRATION ERROR 212.422E-12   AT NODE PART-1-1.110 OF CONTACT PAIR 
   (GENERAL_CONTACT_EDGES_5,GENERAL_CONTACT_FACES_1)
   MAX. CONTACT FORCE ERROR 17.9170E-09  AT NODE PART-1-1.110 OF CONTACT PAIR 
   (GENERAL_CONTACT_EDGES_5,GENERAL_CONTACT_FACES_1)
          THE CONTACT CONSTRAINTS HAVE CONVERGED.

 AVERAGE FORCE                      2.971E-03   TIME AVG. FORCE       2.971E-03
 LARGEST RESIDUAL FORCE             4.825E-03   AT NODE         66   DOF  3
   INSTANCE: PART-1-1                                                                        
 LARGEST INCREMENT OF DISP.         -2.00       AT NODE         11   DOF  3
   INSTANCE: PART-1-2                                                                        
 LARGEST CORRECTION TO DISP.         4.26       AT NODE        115   DOF  3
   INSTANCE: PART-2-1                                                                        
          FORCE     EQUILIBRIUM NOT ACHIEVED WITHIN TOLERANCE.

 AVERAGE MOMENT                     1.219E-03   TIME AVG. MOMENT      1.219E-03
 LARGEST RESIDUAL MOMENT           -3.085E-12   AT NODE         17   DOF  5
   INSTANCE: PART-1-1                                                                        
 LARGEST INCREMENT OF ROTATION     -1.135E-02   AT NODE         45   DOF  5
   INSTANCE: PART-1-3                                                                        
 LARGEST CORRECTION TO ROTATION     0.396       AT NODE        121   DOF  5
   INSTANCE: PART-1-1                                                                        
          THE MOMENT    EQUILIBRIUM RESPONSE WAS LINEAR IN THIS INCREMENT
 
	SYMMETRIC DIRECT SPARSE SOLVER RUNNING ON
 	1 HOST:        1 MPI RANK  x 2 THREADS
 	NUMBER OF EQUATIONS:     2778
 	NUMBER OF RHS:           1
 	NUMBER OF FLOPS:         3.612e+07

     CHECK POINT   START OF SOLVER    

     CHECK POINT  END OF SOLVER       

       ELAPSED USER TIME (SEC)      =  0.10000    
       ELAPSED SYSTEM TIME (SEC)    =   0.0000    
       ELAPSED TOTAL CPU TIME (SEC) =  0.10000    
       ELAPSED WALLCLOCK TIME (SEC) =          0

               CONVERGENCE CHECKS FOR EQUILIBRIUM ITERATION     2

   MAX. PENETRATION ERROR 6.14579E-15 AT NODE PART-2-1.23 OF CONTACT PAIR 
   (GENERAL_CONTACT_EDGES_2,GENERAL_CONTACT_FACES_1)
   MAX. CONTACT FORCE ERROR 583.174E-15   AT NODE PART-2-1.23 OF CONTACT PAIR 
   (GENERAL_CONTACT_EDGES_2,GENERAL_CONTACT_FACES_1)
          THE CONTACT CONSTRAINTS HAVE CONVERGED.

 AVERAGE FORCE                      2.968E-03   TIME AVG. FORCE       2.968E-03
 LARGEST RESIDUAL FORCE             5.604E-10   AT NODE         99   DOF  3
   INSTANCE: PART-1-1                                                                        
 LARGEST INCREMENT OF DISP.         -2.00       AT NODE         11   DOF  3
   INSTANCE: PART-1-2                                                                        
 LARGEST CORRECTION TO DISP.        5.533E-06   AT NODE        110   DOF  3
   INSTANCE: PART-1-1                                                                        
          THE FORCE     EQUILIBRIUM EQUATIONS HAVE CONVERGED

 AVERAGE MOMENT                     1.218E-03   TIME AVG. MOMENT      1.218E-03
 LARGEST RESIDUAL MOMENT            4.460E-13   AT NODE         85   DOF  5
   INSTANCE: PART-1-3                                                                        
 LARGEST INCREMENT OF ROTATION     -1.135E-02   AT NODE         67   DOF  5
   INSTANCE: PART-1-3                                                                        
 LARGEST CORRECTION TO ROTATION    -9.005E-07   AT NODE        121   DOF  4
   INSTANCE: PART-1-1                                                                        
          THE MOMENT    EQUILIBRIUM EQUATIONS HAVE CONVERGED

 ITERATION SUMMARY FOR THE INCREMENT:   4 TOTAL ITERATIONS, OF WHICH
   2 ARE SEVERE DISCONTINUITY ITERATIONS AND  2 ARE EQUILIBRIUM ITERATIONS.

 TIME INCREMENT COMPLETED  2.500E-02,  FRACTION OF STEP COMPLETED  2.500E-02
 STEP TIME COMPLETED       2.500E-02,  TOTAL TIME COMPLETED        2.500E-02


  INCREMENT     2 STARTS. ATTEMPT NUMBER  1, TIME INCREMENT  2.500E-02
 
	SYMMETRIC DIRECT SPARSE SOLVER RUNNING ON
 	1 HOST:        1 MPI RANK  x 2 THREADS
 	NUMBER OF EQUATIONS:     2778
 	NUMBER OF RHS:           1
 	NUMBER OF FLOPS:         3.638e+07

     CHECK POINT   START OF SOLVER    

     CHECK POINT  END OF SOLVER       

       ELAPSED USER TIME (SEC)      =  0.10000    
       ELAPSED SYSTEM TIME (SEC)    =   0.0000    
       ELAPSED TOTAL CPU TIME (SEC) =  0.10000    
       ELAPSED WALLCLOCK TIME (SEC) =          0

               CONVERGENCE CHECKS FOR EQUILIBRIUM ITERATION     1

   MAX. PENETRATION ERROR 1.01511E-12 AT NODE PART-1-1.44 OF CONTACT PAIR 
   (GENERAL_CONTACT_EDGES_5,GENERAL_CONTACT_FACES_1)
   MAX. CONTACT FORCE ERROR 85.6211E-12  AT NODE PART-1-1.44 OF CONTACT PAIR 
   (GENERAL_CONTACT_EDGES_5,GENERAL_CONTACT_FACES_1)
          THE CONTACT CONSTRAINTS HAVE CONVERGED.

 AVERAGE FORCE                      3.348E-02   TIME AVG. FORCE       1.823E-02
 LARGEST RESIDUAL FORCE             0.927       AT NODE         77   DOF  3
   INSTANCE: PART-1-1                                                                        
 LARGEST INCREMENT OF DISP.         -2.00       AT NODE         11   DOF  3
   INSTANCE: PART-1-2                                                                        
 LARGEST CORRECTION TO DISP.        0.999       AT NODE         99   DOF  3
   INSTANCE: PART-1-1                                                                        
          FORCE     EQUILIBRIUM NOT ACHIEVED WITHIN TOLERANCE.

 AVERAGE MOMENT                     1.049E-02   TIME AVG. MOMENT      5.854E-03
 LARGEST RESIDUAL MOMENT           -8.801E-13   AT NODE         74   DOF  5
   INSTANCE: PART-1-3                                                                        
 LARGEST INCREMENT OF ROTATION     -2.459E-02   AT NODE         67   DOF  5
   INSTANCE: PART-1-3                                                                        
 LARGEST CORRECTION TO ROTATION    -1.324E-02   AT NODE         67   DOF  5
   INSTANCE: PART-1-3                                                                        
          THE MOMENT    EQUILIBRIUM RESPONSE WAS LINEAR IN THIS INCREMENT
 
	SYMMETRIC DIRECT SPARSE SOLVER RUNNING ON
 	1 HOST:        1 MPI RANK  x 2 THREADS
 	NUMBER OF EQUATIONS:     2778
 	NUMBER OF RHS:           1
 	NUMBER OF FLOPS:         3.638e+07

     CHECK POINT   START OF SOLVER    

     CHECK POINT  END OF SOLVER       

       ELAPSED USER TIME (SEC)      =   0.0000    
       ELAPSED SYSTEM TIME (SEC)    =   0.0000    
       ELAPSED TOTAL CPU TIME (SEC) =   0.0000    
       ELAPSED WALLCLOCK TIME (SEC) =          0

               CONVERGENCE CHECKS FOR EQUILIBRIUM ITERATION     2

   MAX. PENETRATION ERROR 7.04343E-15 AT NODE PART-2-1.89 OF CONTACT PAIR 
   (GENERAL_CONTACT_EDGES_2,GENERAL_CONTACT_FACES_1)
   MAX. CONTACT FORCE ERROR 668.356E-15   AT NODE PART-2-1.89 OF CONTACT PAIR 
   (GENERAL_CONTACT_EDGES_2,GENERAL_CONTACT_FACES_1)
          THE CONTACT CONSTRAINTS HAVE CONVERGED.

 AVERAGE FORCE                      3.120E-02   TIME AVG. FORCE       1.708E-02
 LARGEST RESIDUAL FORCE             7.539E-10   AT NODE         55   DOF  3
   INSTANCE: PART-1-1                                                                        
 LARGEST INCREMENT OF DISP.         -2.00       AT NODE         11   DOF  3
   INSTANCE: PART-1-2                                                                        
 LARGEST CORRECTION TO DISP.        9.990E-04   AT NODE         99   DOF  3
   INSTANCE: PART-1-1                                                                        
          THE FORCE     EQUILIBRIUM EQUATIONS HAVE CONVERGED

 AVERAGE MOMENT                     1.049E-02   TIME AVG. MOMENT      5.855E-03
 LARGEST RESIDUAL MOMENT            8.533E-13   AT NODE        106   DOF  5
   INSTANCE: PART-1-3                                                                        
 LARGEST INCREMENT OF ROTATION     -2.461E-02   AT NODE         45   DOF  5
   INSTANCE: PART-1-3                                                                        
 LARGEST CORRECTION TO ROTATION    -1.145E-05   AT NODE         45   DOF  5
   INSTANCE: PART-1-3                                                                        
          THE MOMENT    EQUILIBRIUM EQUATIONS HAVE CONVERGED
          TIME INCREMENT MAY NOW INCREASE TO    3.750E-02

 ITERATION SUMMARY FOR THE INCREMENT:   2 TOTAL ITERATIONS, OF WHICH
   0 ARE SEVERE DISCONTINUITY ITERATIONS AND  2 ARE EQUILIBRIUM ITERATIONS.

 TIME INCREMENT COMPLETED  2.500E-02,  FRACTION OF STEP COMPLETED  5.000E-02
 STEP TIME COMPLETED       5.000E-02,  TOTAL TIME COMPLETED        5.000E-02


  INCREMENT     3 STARTS. ATTEMPT NUMBER  1, TIME INCREMENT  3.750E-02
 
	SYMMETRIC DIRECT SPARSE SOLVER RUNNING ON
 	1 HOST:        1 MPI RANK  x 2 THREADS
 	NUMBER OF EQUATIONS:     2778
 	NUMBER OF RHS:           1
 	NUMBER OF FLOPS:         3.638e+07

     CHECK POINT   START OF SOLVER    

     CHECK POINT  END OF SOLVER       

       ELAPSED USER TIME (SEC)      =   0.0000    
       ELAPSED SYSTEM TIME (SEC)    =   0.0000    
       ELAPSED TOTAL CPU TIME (SEC) =   0.0000    
       ELAPSED WALLCLOCK TIME (SEC) =          0

               CONVERGENCE CHECKS FOR EQUILIBRIUM ITERATION     1

   MAX. PENETRATION ERROR -41.8992E-15  AT NODE PART-2-1.23 OF CONTACT PAIR 
   (GENERAL_CONTACT_EDGES_2,GENERAL_CONTACT_FACES_1)
   MAX. CONTACT FORCE ERROR -3.97587E-12 AT NODE PART-2-1.23 OF CONTACT PAIR 
   (GENERAL_CONTACT_EDGES_2,GENERAL_CONTACT_FACES_1)
          THE CONTACT CONSTRAINTS HAVE CONVERGED.

 AVERAGE FORCE                      7.741E-02   TIME AVG. FORCE       3.719E-02
 LARGEST RESIDUAL FORCE            -1.801E-07   AT NODE         66   DOF  3
   INSTANCE: PART-1-1                                                                        
 LARGEST INCREMENT OF DISP.         -3.00       AT NODE         11   DOF  3
   INSTANCE: PART-1-2                                                                        
 LARGEST CORRECTION TO DISP.        0.103       AT NODE          6   DOF  3
   INSTANCE: PART-2-1                                                                        
 ESTIMATE OF DISP.    CORRECTION    1.004E-06
 FORCE     EQUILIB. ACCEPTED BASED ON SMALL RESIDUAL AND ESTIMATED CORRECTION

 AVERAGE MOMENT                     1.525E-02   TIME AVG. MOMENT      8.988E-03
 LARGEST RESIDUAL MOMENT            1.241E-12   AT NODE         76   DOF  6
   INSTANCE: PART-1-3                                                                        
 LARGEST INCREMENT OF ROTATION      3.597E-02   AT NODE         11   DOF  5
   INSTANCE: PART-2-1                                                                        
 LARGEST CORRECTION TO ROTATION     7.287E-03   AT NODE        121   DOF  5
   INSTANCE: PART-2-1                                                                        
          THE MOMENT    EQUILIBRIUM RESPONSE WAS LINEAR IN THIS INCREMENT
          TIME INCREMENT MAY NOW INCREASE TO    5.625E-02

 ITERATION SUMMARY FOR THE INCREMENT:   1 TOTAL ITERATIONS, OF WHICH
   0 ARE SEVERE DISCONTINUITY ITERATIONS AND  1 ARE EQUILIBRIUM ITERATIONS.

 TIME INCREMENT COMPLETED  3.750E-02,  FRACTION OF STEP COMPLETED  8.750E-02
 STEP TIME COMPLETED       8.750E-02,  TOTAL TIME COMPLETED        8.750E-02


  INCREMENT     4 STARTS. ATTEMPT NUMBER  1, TIME INCREMENT  5.625E-02
 
	SYMMETRIC DIRECT SPARSE SOLVER RUNNING ON
 	1 HOST:        1 MPI RANK  x 2 THREADS
 	NUMBER OF EQUATIONS:     2778
 	NUMBER OF RHS:           1
 	NUMBER OF FLOPS:         3.638e+07

     CHECK POINT   START OF SOLVER    

     CHECK POINT  END OF SOLVER       

       ELAPSED USER TIME (SEC)      =  0.10000    
       ELAPSED SYSTEM TIME (SEC)    =   0.0000    
       ELAPSED TOTAL CPU TIME (SEC) =  0.10000    
       ELAPSED WALLCLOCK TIME (SEC) =          0

               CONVERGENCE CHECKS FOR EQUILIBRIUM ITERATION     1

   MAX. PENETRATION ERROR -82.6444E-15  AT NODE PART-2-1.78 OF CONTACT PAIR 
   (GENERAL_CONTACT_EDGES_2,GENERAL_CONTACT_FACES_1)
   MAX. CONTACT FORCE ERROR -6.97093E-12 AT NODE PART-2-1.78 OF CONTACT PAIR 
   (GENERAL_CONTACT_EDGES_2,GENERAL_CONTACT_FACES_1)
          THE CONTACT CONSTRAINTS HAVE CONVERGED.

 AVERAGE FORCE                      0.135       TIME AVG. FORCE       6.176E-02
 LARGEST RESIDUAL FORCE             3.942E-07   AT NODE         66   DOF  3
   INSTANCE: PART-1-1                                                                        
 LARGEST INCREMENT OF DISP.         -4.50       AT NODE         11   DOF  3
   INSTANCE: PART-1-2                                                                        
 LARGEST CORRECTION TO DISP.       -0.112       AT NODE          6   DOF  3
   INSTANCE: PART-2-1                                                                        
 ESTIMATE OF DISP.    CORRECTION   -4.777E-06
 FORCE     EQUILIB. ACCEPTED BASED ON SMALL RESIDUAL AND ESTIMATED CORRECTION

 AVERAGE MOMENT                     2.809E-02   TIME AVG. MOMENT      1.376E-02
 LARGEST RESIDUAL MOMENT            1.489E-12   AT NODE         15   DOF  5
   INSTANCE: PART-1-3                                                                        
 LARGEST INCREMENT OF ROTATION     -5.280E-02   AT NODE         45   DOF  5
   INSTANCE: PART-1-3                                                                        
 LARGEST CORRECTION TO ROTATION    -7.861E-03   AT NODE         11   DOF  5
   INSTANCE: PART-2-1                                                                        
          THE MOMENT    EQUILIBRIUM RESPONSE WAS LINEAR IN THIS INCREMENT
          TIME INCREMENT MAY NOW INCREASE TO    8.438E-02

 ITERATION SUMMARY FOR THE INCREMENT:   1 TOTAL ITERATIONS, OF WHICH
   0 ARE SEVERE DISCONTINUITY ITERATIONS AND  1 ARE EQUILIBRIUM ITERATIONS.

 TIME INCREMENT COMPLETED  5.625E-02,  FRACTION OF STEP COMPLETED  0.144    
 STEP TIME COMPLETED       0.144    ,  TOTAL TIME COMPLETED        0.144    


  INCREMENT     5 STARTS. ATTEMPT NUMBER  1, TIME INCREMENT  8.438E-02
 
	SYMMETRIC DIRECT SPARSE SOLVER RUNNING ON
 	1 HOST:        1 MPI RANK  x 2 THREADS
 	NUMBER OF EQUATIONS:     2778
 	NUMBER OF RHS:           1
 	NUMBER OF FLOPS:         3.638e+07

     CHECK POINT   START OF SOLVER    

     CHECK POINT  END OF SOLVER       

       ELAPSED USER TIME (SEC)      =   0.0000    
       ELAPSED SYSTEM TIME (SEC)    =   0.0000    
       ELAPSED TOTAL CPU TIME (SEC) =   0.0000    
       ELAPSED WALLCLOCK TIME (SEC) =          0

               CONVERGENCE CHECKS FOR EQUILIBRIUM ITERATION     1

   MAX. PENETRATION ERROR 111.069E-15   AT NODE PART-1-1.88 OF CONTACT PAIR 
   (GENERAL_CONTACT_EDGES_5,GENERAL_CONTACT_FACES_1)
   MAX. CONTACT FORCE ERROR 9.36865E-12 AT NODE PART-1-1.88 OF CONTACT PAIR 
   (GENERAL_CONTACT_EDGES_5,GENERAL_CONTACT_FACES_1)
          THE CONTACT CONSTRAINTS HAVE CONVERGED.

 AVERAGE FORCE                      0.295       TIME AVG. FORCE       0.108    
 LARGEST RESIDUAL FORCE            -5.692E-07   AT NODE         66   DOF  3
   INSTANCE: PART-1-1                                                                        
 LARGEST INCREMENT OF DISP.         -6.75       AT NODE         11   DOF  3
   INSTANCE: PART-1-2                                                                        
 LARGEST CORRECTION TO DISP.        9.173E-02   AT NODE          6   DOF  3
   INSTANCE: PART-2-1                                                                        
 ESTIMATE OF DISP.    CORRECTION    4.737E-06
 FORCE     EQUILIB. ACCEPTED BASED ON SMALL RESIDUAL AND ESTIMATED CORRECTION

 AVERAGE MOMENT                     4.309E-02   TIME AVG. MOMENT      1.963E-02
 LARGEST RESIDUAL MOMENT           -3.062E-12   AT NODE         18   DOF  6
   INSTANCE: PART-1-2                                                                        
 LARGEST INCREMENT OF ROTATION      7.603E-02   AT NODE         77   DOF  5
   INSTANCE: PART-2-1                                                                        
 LARGEST CORRECTION TO ROTATION     6.432E-03   AT NODE         11   DOF  5
   INSTANCE: PART-2-1                                                                        
          THE MOMENT    EQUILIBRIUM RESPONSE WAS LINEAR IN THIS INCREMENT
          TIME INCREMENT MAY NOW INCREASE TO    0.100    

 ITERATION SUMMARY FOR THE INCREMENT:   1 TOTAL ITERATIONS, OF WHICH
   0 ARE SEVERE DISCONTINUITY ITERATIONS AND  1 ARE EQUILIBRIUM ITERATIONS.

 TIME INCREMENT COMPLETED  8.438E-02,  FRACTION OF STEP COMPLETED  0.228    
 STEP TIME COMPLETED       0.228    ,  TOTAL TIME COMPLETED        0.228    


  INCREMENT     6 STARTS. ATTEMPT NUMBER  1, TIME INCREMENT  0.100    
 
	SYMMETRIC DIRECT SPARSE SOLVER RUNNING ON
 	1 HOST:        1 MPI RANK  x 2 THREADS
 	NUMBER OF EQUATIONS:     2778
 	NUMBER OF RHS:           1
 	NUMBER OF FLOPS:         3.638e+07

     CHECK POINT   START OF SOLVER    

     CHECK POINT  END OF SOLVER       

       ELAPSED USER TIME (SEC)      =  0.10000    
       ELAPSED SYSTEM TIME (SEC)    =   0.0000    
       ELAPSED TOTAL CPU TIME (SEC) =  0.10000    
       ELAPSED WALLCLOCK TIME (SEC) =          0

               CONVERGENCE CHECKS FOR EQUILIBRIUM ITERATION     1

   MAX. PENETRATION ERROR 26.2903E-12  AT NODE PART-2-1.78 OF CONTACT PAIR 
   (GENERAL_CONTACT_EDGES_2,GENERAL_CONTACT_FACES_1)
   MAX. CONTACT FORCE ERROR 2.21763E-09 AT NODE PART-2-1.78 OF CONTACT PAIR 
   (GENERAL_CONTACT_EDGES_2,GENERAL_CONTACT_FACES_1)
          THE CONTACT CONSTRAINTS HAVE CONVERGED.

 AVERAGE FORCE                      0.432       TIME AVG. FORCE       0.162    
 LARGEST RESIDUAL FORCE            -7.681E-04   AT NODE        110   DOF  3
   INSTANCE: PART-1-1                                                                        
 LARGEST INCREMENT OF DISP.         -8.00       AT NODE         11   DOF  3
   INSTANCE: PART-1-2                                                                        
 LARGEST CORRECTION TO DISP.        5.706E-02   AT NODE        116   DOF  1
   INSTANCE: PART-2-1                                                                        
          THE FORCE     EQUILIBRIUM EQUATIONS HAVE CONVERGED

 AVERAGE MOMENT                     6.390E-02   TIME AVG. MOMENT      2.701E-02
 LARGEST RESIDUAL MOMENT           -4.067E-12   AT NODE         16   DOF  5
   INSTANCE: PART-1-3                                                                        
 LARGEST INCREMENT OF ROTATION     -9.071E-02   AT NODE         45   DOF  5
   INSTANCE: PART-1-3                                                                        
 LARGEST CORRECTION TO ROTATION    -4.000E-03   AT NODE         11   DOF  5
   INSTANCE: PART-2-1                                                                        
          THE MOMENT    EQUILIBRIUM RESPONSE WAS LINEAR IN THIS INCREMENT

 ITERATION SUMMARY FOR THE INCREMENT:   1 TOTAL ITERATIONS, OF WHICH
   0 ARE SEVERE DISCONTINUITY ITERATIONS AND  1 ARE EQUILIBRIUM ITERATIONS.

 TIME INCREMENT COMPLETED  0.100    ,  FRACTION OF STEP COMPLETED  0.328    
 STEP TIME COMPLETED       0.328    ,  TOTAL TIME COMPLETED        0.328    


  INCREMENT     7 STARTS. ATTEMPT NUMBER  1, TIME INCREMENT  0.100    
 
	SYMMETRIC DIRECT SPARSE SOLVER RUNNING ON
 	1 HOST:        1 MPI RANK  x 2 THREADS
 	NUMBER OF EQUATIONS:     2778
 	NUMBER OF RHS:           1
 	NUMBER OF FLOPS:         3.638e+07

     CHECK POINT   START OF SOLVER    

     CHECK POINT  END OF SOLVER       

       ELAPSED USER TIME (SEC)      =  0.10000    
       ELAPSED SYSTEM TIME (SEC)    =   0.0000    
       ELAPSED TOTAL CPU TIME (SEC) =  0.10000    
       ELAPSED WALLCLOCK TIME (SEC) =          0

               CONVERGENCE CHECKS FOR EQUILIBRIUM ITERATION     1

   MAX. PENETRATION ERROR -257.367E-12   AT NODE PART-2-1.78 OF CONTACT PAIR 
   (GENERAL_CONTACT_EDGES_2,GENERAL_CONTACT_FACES_1)
   MAX. CONTACT FORCE ERROR -21.7097E-09  AT NODE PART-2-1.78 OF CONTACT PAIR 
   (GENERAL_CONTACT_EDGES_2,GENERAL_CONTACT_FACES_1)
          THE CONTACT CONSTRAINTS HAVE CONVERGED.

 AVERAGE FORCE                      0.569       TIME AVG. FORCE       0.220    
 LARGEST RESIDUAL FORCE             8.315E-03   AT NODE         22   DOF  3
   INSTANCE: PART-1-1                                                                        
 LARGEST INCREMENT OF DISP.         -8.00       AT NODE         11   DOF  3
   INSTANCE: PART-1-2                                                                        
 LARGEST CORRECTION TO DISP.        3.567E-02   AT NODE          6   DOF  1
   INSTANCE: PART-1-1                                                                        
          FORCE     EQUILIBRIUM NOT ACHIEVED WITHIN TOLERANCE.

 AVERAGE MOMENT                     8.333E-02   TIME AVG. MOMENT      3.505E-02
 LARGEST RESIDUAL MOMENT            6.469E-12   AT NODE         20   DOF  5
   INSTANCE: PART-1-2                                                                        
 LARGEST INCREMENT OF ROTATION      8.878E-02   AT NODE         77   DOF  5
   INSTANCE: PART-2-1                                                                        
 LARGEST CORRECTION TO ROTATION    -2.499E-03   AT NODE        111   DOF  5
   INSTANCE: PART-2-1                                                                        
          THE MOMENT    EQUILIBRIUM RESPONSE WAS LINEAR IN THIS INCREMENT
 
	SYMMETRIC DIRECT SPARSE SOLVER RUNNING ON
 	1 HOST:        1 MPI RANK  x 2 THREADS
 	NUMBER OF EQUATIONS:     2778
 	NUMBER OF RHS:           1
 	NUMBER OF FLOPS:         3.638e+07

     CHECK POINT   START OF SOLVER    

     CHECK POINT  END OF SOLVER       

       ELAPSED USER TIME (SEC)      =   0.0000    
       ELAPSED SYSTEM TIME (SEC)    =   0.0000    
       ELAPSED TOTAL CPU TIME (SEC) =   0.0000    
       ELAPSED WALLCLOCK TIME (SEC) =          1

               CONVERGENCE CHECKS FOR EQUILIBRIUM ITERATION     2

   MAX. PENETRATION ERROR 133.934E-15   AT NODE PART-1-1.22 OF CONTACT PAIR 
   (GENERAL_CONTACT_EDGES_5,GENERAL_CONTACT_FACES_1)
   MAX. CONTACT FORCE ERROR 11.2973E-12  AT NODE PART-1-1.22 OF CONTACT PAIR 
   (GENERAL_CONTACT_EDGES_5,GENERAL_CONTACT_FACES_1)
          THE CONTACT CONSTRAINTS HAVE CONVERGED.

 AVERAGE FORCE                      0.569       TIME AVG. FORCE       0.220    
 LARGEST RESIDUAL FORCE            -5.609E-07   AT NODE         22   DOF  3
   INSTANCE: PART-1-1                                                                        
 LARGEST INCREMENT OF DISP.         -8.00       AT NODE         11   DOF  3
   INSTANCE: PART-1-2                                                                        
 LARGEST CORRECTION TO DISP.        1.034E-05   AT NODE         22   DOF  3
   INSTANCE: PART-1-1                                                                        
          THE FORCE     EQUILIBRIUM EQUATIONS HAVE CONVERGED

 AVERAGE MOMENT                     8.333E-02   TIME AVG. MOMENT      3.505E-02
 LARGEST RESIDUAL MOMENT            7.671E-12   AT NODE         20   DOF  5
   INSTANCE: PART-1-3                                                                        
 LARGEST INCREMENT OF ROTATION      8.878E-02   AT NODE         77   DOF  5
   INSTANCE: PART-2-1                                                                        
 LARGEST CORRECTION TO ROTATION     1.429E-06   AT NODE         11   DOF  4
   INSTANCE: PART-1-1                                                                        
          THE MOMENT    EQUILIBRIUM EQUATIONS HAVE CONVERGED

 ITERATION SUMMARY FOR THE INCREMENT:   2 TOTAL ITERATIONS, OF WHICH
   0 ARE SEVERE DISCONTINUITY ITERATIONS AND  2 ARE EQUILIBRIUM ITERATIONS.

 TIME INCREMENT COMPLETED  0.100    ,  FRACTION OF STEP COMPLETED  0.428    
 STEP TIME COMPLETED       0.428    ,  TOTAL TIME COMPLETED        0.428    


  INCREMENT     8 STARTS. ATTEMPT NUMBER  1, TIME INCREMENT  0.100    
 
	SYMMETRIC DIRECT SPARSE SOLVER RUNNING ON
 	1 HOST:        1 MPI RANK  x 2 THREADS
 	NUMBER OF EQUATIONS:     2778
 	NUMBER OF RHS:           1
 	NUMBER OF FLOPS:         3.638e+07

     CHECK POINT   START OF SOLVER    

     CHECK POINT  END OF SOLVER       

       ELAPSED USER TIME (SEC)      =   0.0000    
       ELAPSED SYSTEM TIME (SEC)    =   0.0000    
       ELAPSED TOTAL CPU TIME (SEC) =   0.0000    
       ELAPSED WALLCLOCK TIME (SEC) =          0

               CONVERGENCE CHECKS FOR EQUILIBRIUM ITERATION     1

   MAX. PENETRATION ERROR 367.622E-12   AT NODE PART-2-1.78 OF CONTACT PAIR 
   (GENERAL_CONTACT_EDGES_2,GENERAL_CONTACT_FACES_1)
   MAX. CONTACT FORCE ERROR 31.0106E-09  AT NODE PART-2-1.78 OF CONTACT PAIR 
   (GENERAL_CONTACT_EDGES_2,GENERAL_CONTACT_FACES_1)
          THE CONTACT CONSTRAINTS HAVE CONVERGED.

 AVERAGE FORCE                      0.706       TIME AVG. FORCE       0.281    
 LARGEST RESIDUAL FORCE            -1.224E-02   AT NODE         22   DOF  3
   INSTANCE: PART-1-1                                                                        
 LARGEST INCREMENT OF DISP.         -8.00       AT NODE         11   DOF  3
   INSTANCE: PART-1-2                                                                        
 LARGEST CORRECTION TO DISP.       -2.460E-02   AT NODE          6   DOF  3
   INSTANCE: PART-1-1                                                                        
          FORCE     EQUILIBRIUM NOT ACHIEVED WITHIN TOLERANCE.

 AVERAGE MOMENT                     0.104       TIME AVG. MOMENT      4.366E-02
 LARGEST RESIDUAL MOMENT           -8.006E-12   AT NODE         53   DOF  5
   INSTANCE: PART-1-2                                                                        
 LARGEST INCREMENT OF ROTATION     -9.002E-02   AT NODE         45   DOF  5
   INSTANCE: PART-1-3                                                                        
 LARGEST CORRECTION TO ROTATION    -1.705E-03   AT NODE        121   DOF  5
   INSTANCE: PART-2-1                                                                        
          THE MOMENT    EQUILIBRIUM RESPONSE WAS LINEAR IN THIS INCREMENT
 
	SYMMETRIC DIRECT SPARSE SOLVER RUNNING ON
 	1 HOST:        1 MPI RANK  x 2 THREADS
 	NUMBER OF EQUATIONS:     2778
 	NUMBER OF RHS:           1
 	NUMBER OF FLOPS:         3.638e+07

     CHECK POINT   START OF SOLVER    

     CHECK POINT  END OF SOLVER       

       ELAPSED USER TIME (SEC)      =  0.10000    
       ELAPSED SYSTEM TIME (SEC)    =   0.0000    
       ELAPSED TOTAL CPU TIME (SEC) =  0.10000    
       ELAPSED WALLCLOCK TIME (SEC) =          0

               CONVERGENCE CHECKS FOR EQUILIBRIUM ITERATION     2

   MAX. PENETRATION ERROR -683.226E-15   AT NODE PART-1-1.22 OF CONTACT PAIR 
   (GENERAL_CONTACT_EDGES_5,GENERAL_CONTACT_FACES_1)
   MAX. CONTACT FORCE ERROR -57.6306E-12  AT NODE PART-1-1.22 OF CONTACT PAIR 
   (GENERAL_CONTACT_EDGES_5,GENERAL_CONTACT_FACES_1)
          THE CONTACT CONSTRAINTS HAVE CONVERGED.

 AVERAGE FORCE                      0.706       TIME AVG. FORCE       0.281    
 LARGEST RESIDUAL FORCE             2.056E-06   AT NODE        110   DOF  3
   INSTANCE: PART-1-1                                                                        
 LARGEST INCREMENT OF DISP.         -8.00       AT NODE         11   DOF  3
   INSTANCE: PART-1-2                                                                        
 LARGEST CORRECTION TO DISP.       -1.800E-05   AT NODE         22   DOF  3
   INSTANCE: PART-1-1                                                                        
          THE FORCE     EQUILIBRIUM EQUATIONS HAVE CONVERGED

 AVERAGE MOMENT                     0.104       TIME AVG. MOMENT      4.366E-02
 LARGEST RESIDUAL MOMENT           -6.498E-12   AT NODE         14   DOF  4
   INSTANCE: PART-1-1                                                                        
 LARGEST INCREMENT OF ROTATION     -9.002E-02   AT NODE         45   DOF  5
   INSTANCE: PART-1-3                                                                        
 LARGEST CORRECTION TO ROTATION    -2.125E-06   AT NODE         11   DOF  4
   INSTANCE: PART-1-1                                                                        
          THE MOMENT    EQUILIBRIUM EQUATIONS HAVE CONVERGED

 ITERATION SUMMARY FOR THE INCREMENT:   2 TOTAL ITERATIONS, OF WHICH
   0 ARE SEVERE DISCONTINUITY ITERATIONS AND  2 ARE EQUILIBRIUM ITERATIONS.

 TIME INCREMENT COMPLETED  0.100    ,  FRACTION OF STEP COMPLETED  0.528    
 STEP TIME COMPLETED       0.528    ,  TOTAL TIME COMPLETED        0.528    


  INCREMENT     9 STARTS. ATTEMPT NUMBER  1, TIME INCREMENT  0.100    
 
	SYMMETRIC DIRECT SPARSE SOLVER RUNNING ON
 	1 HOST:        1 MPI RANK  x 2 THREADS
 	NUMBER OF EQUATIONS:     2778
 	NUMBER OF RHS:           1
 	NUMBER OF FLOPS:         3.638e+07

     CHECK POINT   START OF SOLVER    

     CHECK POINT  END OF SOLVER       

       ELAPSED USER TIME (SEC)      =   0.0000    
       ELAPSED SYSTEM TIME (SEC)    =   0.0000    
       ELAPSED TOTAL CPU TIME (SEC) =   0.0000    
       ELAPSED WALLCLOCK TIME (SEC) =          0

               CONVERGENCE CHECKS FOR EQUILIBRIUM ITERATION     1

   MAX. PENETRATION ERROR -367.527E-12   AT NODE PART-1-1.22 OF CONTACT PAIR 
   (GENERAL_CONTACT_EDGES_5,GENERAL_CONTACT_FACES_1)
   MAX. CONTACT FORCE ERROR -31.0015E-09  AT NODE PART-1-1.22 OF CONTACT PAIR 
   (GENERAL_CONTACT_EDGES_5,GENERAL_CONTACT_FACES_1)
          THE CONTACT CONSTRAINTS HAVE CONVERGED.

 AVERAGE FORCE                      0.843       TIME AVG. FORCE       0.344    
 LARGEST RESIDUAL FORCE             1.462E-02   AT NODE        110   DOF  3
   INSTANCE: PART-1-1                                                                        
 LARGEST INCREMENT OF DISP.         -8.00       AT NODE         11   DOF  3
   INSTANCE: PART-1-2                                                                        
 LARGEST CORRECTION TO DISP.        1.684E-02   AT NODE          6   DOF  1
   INSTANCE: PART-1-1                                                                        
          FORCE     EQUILIBRIUM NOT ACHIEVED WITHIN TOLERANCE.

 AVERAGE MOMENT                     0.124       TIME AVG. MOMENT      5.261E-02
 LARGEST RESIDUAL MOMENT            7.721E-12   AT NODE         87   DOF  4
   INSTANCE: PART-1-2                                                                        
 LARGEST INCREMENT OF ROTATION     -8.901E-02   AT NODE         67   DOF  5
   INSTANCE: PART-1-3                                                                        
 LARGEST CORRECTION TO ROTATION    -1.164E-03   AT NODE        111   DOF  5
   INSTANCE: PART-2-1                                                                        
          THE MOMENT    EQUILIBRIUM RESPONSE WAS LINEAR IN THIS INCREMENT
 
	SYMMETRIC DIRECT SPARSE SOLVER RUNNING ON
 	1 HOST:        1 MPI RANK  x 2 THREADS
 	NUMBER OF EQUATIONS:     2778
 	NUMBER OF RHS:           1
 	NUMBER OF FLOPS:         3.638e+07

     CHECK POINT   START OF SOLVER    

     CHECK POINT  END OF SOLVER       

       ELAPSED USER TIME (SEC)      =   0.0000    
       ELAPSED SYSTEM TIME (SEC)    =   0.0000    
       ELAPSED TOTAL CPU TIME (SEC) =   0.0000    
       ELAPSED WALLCLOCK TIME (SEC) =          0

               CONVERGENCE CHECKS FOR EQUILIBRIUM ITERATION     2

   MAX. PENETRATION ERROR 1.65839E-12 AT NODE PART-1-1.22 OF CONTACT PAIR 
   (GENERAL_CONTACT_EDGES_5,GENERAL_CONTACT_FACES_1)
   MAX. CONTACT FORCE ERROR 139.888E-12   AT NODE PART-1-1.22 OF CONTACT PAIR 
   (GENERAL_CONTACT_EDGES_5,GENERAL_CONTACT_FACES_1)
          THE CONTACT CONSTRAINTS HAVE CONVERGED.

 AVERAGE FORCE                      0.843       TIME AVG. FORCE       0.344    
 LARGEST RESIDUAL FORCE            -5.120E-06   AT NODE        110   DOF  3
   INSTANCE: PART-1-1                                                                        
 LARGEST INCREMENT OF DISP.         -8.00       AT NODE         11   DOF  3
   INSTANCE: PART-1-2                                                                        
 LARGEST CORRECTION TO DISP.        2.774E-05   AT NODE        100   DOF  3
   INSTANCE: PART-2-1                                                                        
          THE FORCE     EQUILIBRIUM EQUATIONS HAVE CONVERGED

 AVERAGE MOMENT                     0.124       TIME AVG. MOMENT      5.261E-02
 LARGEST RESIDUAL MOMENT           -9.291E-12   AT NODE         32   DOF  5
   INSTANCE: PART-2-1                                                                        
 LARGEST INCREMENT OF ROTATION     -8.901E-02   AT NODE         67   DOF  5
   INSTANCE: PART-1-3                                                                        
 LARGEST CORRECTION TO ROTATION    -2.456E-06   AT NODE        121   DOF  4
   INSTANCE: PART-1-1                                                                        
          THE MOMENT    EQUILIBRIUM EQUATIONS HAVE CONVERGED

 ITERATION SUMMARY FOR THE INCREMENT:   2 TOTAL ITERATIONS, OF WHICH
   0 ARE SEVERE DISCONTINUITY ITERATIONS AND  2 ARE EQUILIBRIUM ITERATIONS.

 TIME INCREMENT COMPLETED  0.100    ,  FRACTION OF STEP COMPLETED  0.628    
 STEP TIME COMPLETED       0.628    ,  TOTAL TIME COMPLETED        0.628    


  INCREMENT    10 STARTS. ATTEMPT NUMBER  1, TIME INCREMENT  0.100    
 
	SYMMETRIC DIRECT SPARSE SOLVER RUNNING ON
 	1 HOST:        1 MPI RANK  x 2 THREADS
 	NUMBER OF EQUATIONS:     2778
 	NUMBER OF RHS:           1
 	NUMBER OF FLOPS:         3.638e+07

     CHECK POINT   START OF SOLVER    

     CHECK POINT  END OF SOLVER       

       ELAPSED USER TIME (SEC)      =   0.0000    
       ELAPSED SYSTEM TIME (SEC)    =   0.0000    
       ELAPSED TOTAL CPU TIME (SEC) =   0.0000    
       ELAPSED WALLCLOCK TIME (SEC) =          0

               CONVERGENCE CHECKS FOR EQUILIBRIUM ITERATION     1

   MAX. PENETRATION ERROR 410.416E-12   AT NODE PART-2-1.12 OF CONTACT PAIR 
   (GENERAL_CONTACT_EDGES_2,GENERAL_CONTACT_FACES_1)
   MAX. CONTACT FORCE ERROR 34.6198E-09  AT NODE PART-2-1.12 OF CONTACT PAIR 
   (GENERAL_CONTACT_EDGES_2,GENERAL_CONTACT_FACES_1)
          THE CONTACT CONSTRAINTS HAVE CONVERGED.

 AVERAGE FORCE                      0.980       TIME AVG. FORCE       0.407    
 LARGEST RESIDUAL FORCE            -1.475E-02   AT NODE        110   DOF  3
   INSTANCE: PART-1-1                                                                        
 LARGEST INCREMENT OF DISP.         -8.00       AT NODE         11   DOF  3
   INSTANCE: PART-1-2                                                                        
 LARGEST CORRECTION TO DISP.       -1.280E-02   AT NODE          6   DOF  3
   INSTANCE: PART-1-1                                                                        
          FORCE     EQUILIBRIUM NOT ACHIEVED WITHIN TOLERANCE.

 AVERAGE MOMENT                     0.145       TIME AVG. MOMENT      6.186E-02
 LARGEST RESIDUAL MOMENT            1.110E-11   AT NODE         32   DOF  5
   INSTANCE: PART-1-3                                                                        
 LARGEST INCREMENT OF ROTATION     -8.967E-02   AT NODE         45   DOF  5
   INSTANCE: PART-1-3                                                                        
 LARGEST CORRECTION TO ROTATION    -8.073E-04   AT NODE        121   DOF  5
   INSTANCE: PART-2-1                                                                        
          THE MOMENT    EQUILIBRIUM RESPONSE WAS LINEAR IN THIS INCREMENT
 
	SYMMETRIC DIRECT SPARSE SOLVER RUNNING ON
 	1 HOST:        1 MPI RANK  x 2 THREADS
 	NUMBER OF EQUATIONS:     2778
 	NUMBER OF RHS:           1
 	NUMBER OF FLOPS:         3.638e+07

     CHECK POINT   START OF SOLVER    

     CHECK POINT  END OF SOLVER       

       ELAPSED USER TIME (SEC)      =   0.0000    
       ELAPSED SYSTEM TIME (SEC)    =   0.0000    
       ELAPSED TOTAL CPU TIME (SEC) =   0.0000    
       ELAPSED WALLCLOCK TIME (SEC) =          0

               CONVERGENCE CHECKS FOR EQUILIBRIUM ITERATION     2

   MAX. PENETRATION ERROR -2.81860E-12 AT NODE PART-1-1.22 OF CONTACT PAIR 
   (GENERAL_CONTACT_EDGES_5,GENERAL_CONTACT_FACES_1)
   MAX. CONTACT FORCE ERROR -237.757E-12   AT NODE PART-1-1.22 OF CONTACT PAIR 
   (GENERAL_CONTACT_EDGES_5,GENERAL_CONTACT_FACES_1)
          THE CONTACT CONSTRAINTS HAVE CONVERGED.

 AVERAGE FORCE                      0.980       TIME AVG. FORCE       0.407    
 LARGEST RESIDUAL FORCE             1.100E-05   AT NODE        110   DOF  3
   INSTANCE: PART-1-1                                                                        
 LARGEST INCREMENT OF DISP.         -8.00       AT NODE         11   DOF  3
   INSTANCE: PART-1-2                                                                        
 LARGEST CORRECTION TO DISP.       -4.010E-05   AT NODE        100   DOF  3
   INSTANCE: PART-2-1                                                                        
          THE FORCE     EQUILIBRIUM EQUATIONS HAVE CONVERGED

 AVERAGE MOMENT                     0.145       TIME AVG. MOMENT      6.186E-02
 LARGEST RESIDUAL MOMENT            9.893E-12   AT NODE         41   DOF  5
   INSTANCE: PART-1-3                                                                        
 LARGEST INCREMENT OF ROTATION     -8.967E-02   AT NODE         45   DOF  5
   INSTANCE: PART-1-3                                                                        
 LARGEST CORRECTION TO ROTATION    -2.264E-06   AT NODE         11   DOF  4
   INSTANCE: PART-1-1                                                                        
          THE MOMENT    EQUILIBRIUM EQUATIONS HAVE CONVERGED

 ITERATION SUMMARY FOR THE INCREMENT:   2 TOTAL ITERATIONS, OF WHICH
   0 ARE SEVERE DISCONTINUITY ITERATIONS AND  2 ARE EQUILIBRIUM ITERATIONS.

 TIME INCREMENT COMPLETED  0.100    ,  FRACTION OF STEP COMPLETED  0.728    
 STEP TIME COMPLETED       0.728    ,  TOTAL TIME COMPLETED        0.728    


  INCREMENT    11 STARTS. ATTEMPT NUMBER  1, TIME INCREMENT  0.100    
 
	SYMMETRIC DIRECT SPARSE SOLVER RUNNING ON
 	1 HOST:        1 MPI RANK  x 2 THREADS
 	NUMBER OF EQUATIONS:     2778
 	NUMBER OF RHS:           1
 	NUMBER OF FLOPS:         3.638e+07

     CHECK POINT   START OF SOLVER    

     CHECK POINT  END OF SOLVER       

       ELAPSED USER TIME (SEC)      =   0.0000    
       ELAPSED SYSTEM TIME (SEC)    =   0.0000    
       ELAPSED TOTAL CPU TIME (SEC) =   0.0000    
       ELAPSED WALLCLOCK TIME (SEC) =          1

               CONVERGENCE CHECKS FOR EQUILIBRIUM ITERATION     1

   MAX. PENETRATION ERROR -511.016E-12   AT NODE PART-1-1.110 OF CONTACT PAIR 
   (GENERAL_CONTACT_EDGES_5,GENERAL_CONTACT_FACES_1)
   MAX. CONTACT FORCE ERROR -43.1063E-09  AT NODE PART-1-1.110 OF CONTACT PAIR 
   (GENERAL_CONTACT_EDGES_5,GENERAL_CONTACT_FACES_1)
          THE CONTACT CONSTRAINTS HAVE CONVERGED.

 AVERAGE FORCE                       1.12       TIME AVG. FORCE       0.472    
 LARGEST RESIDUAL FORCE             1.840E-02   AT NODE         22   DOF  3
   INSTANCE: PART-1-1                                                                        
 LARGEST INCREMENT OF DISP.         -8.00       AT NODE         11   DOF  3
   INSTANCE: PART-1-2                                                                        
 LARGEST CORRECTION TO DISP.        9.220E-03   AT NODE          6   DOF  1
   INSTANCE: PART-1-1                                                                        
          FORCE     EQUILIBRIUM NOT ACHIEVED WITHIN TOLERANCE.

 AVERAGE MOMENT                     0.166       TIME AVG. MOMENT      7.134E-02
 LARGEST RESIDUAL MOMENT           -1.481E-11   AT NODE         41   DOF  5
   INSTANCE: PART-1-3                                                                        
 LARGEST INCREMENT OF ROTATION     -8.915E-02   AT NODE         67   DOF  5
   INSTANCE: PART-1-3                                                                        
 LARGEST CORRECTION TO ROTATION    -5.945E-04   AT NODE        111   DOF  5
   INSTANCE: PART-1-2                                                                        
          THE MOMENT    EQUILIBRIUM RESPONSE WAS LINEAR IN THIS INCREMENT
 
	SYMMETRIC DIRECT SPARSE SOLVER RUNNING ON
 	1 HOST:        1 MPI RANK  x 2 THREADS
 	NUMBER OF EQUATIONS:     2778
 	NUMBER OF RHS:           1
 	NUMBER OF FLOPS:         3.638e+07

     CHECK POINT   START OF SOLVER    

     CHECK POINT  END OF SOLVER       

       ELAPSED USER TIME (SEC)      =   0.0000    
       ELAPSED SYSTEM TIME (SEC)    =   0.0000    
       ELAPSED TOTAL CPU TIME (SEC) =   0.0000    
       ELAPSED WALLCLOCK TIME (SEC) =          0

               CONVERGENCE CHECKS FOR EQUILIBRIUM ITERATION     2

   MAX. PENETRATION ERROR 4.70930E-12 AT NODE PART-1-1.110 OF CONTACT PAIR 
   (GENERAL_CONTACT_EDGES_5,GENERAL_CONTACT_FACES_1)
   MAX. CONTACT FORCE ERROR 397.249E-12   AT NODE PART-1-1.110 OF CONTACT PAIR 
   (GENERAL_CONTACT_EDGES_5,GENERAL_CONTACT_FACES_1)
          THE CONTACT CONSTRAINTS HAVE CONVERGED.

 AVERAGE FORCE                       1.12       TIME AVG. FORCE       0.472    
 LARGEST RESIDUAL FORCE            -3.250E-05   AT NODE        110   DOF  3
   INSTANCE: PART-1-1                                                                        
 LARGEST INCREMENT OF DISP.         -8.00       AT NODE         11   DOF  3
   INSTANCE: PART-1-2                                                                        
 LARGEST CORRECTION TO DISP.        8.183E-05   AT NODE         12   DOF  3
   INSTANCE: PART-2-1                                                                        
          THE FORCE     EQUILIBRIUM EQUATIONS HAVE CONVERGED

 AVERAGE MOMENT                     0.166       TIME AVG. MOMENT      7.134E-02
 LARGEST RESIDUAL MOMENT            1.195E-11   AT NODE         53   DOF  5
   INSTANCE: PART-1-3                                                                        
 LARGEST INCREMENT OF ROTATION     -8.915E-02   AT NODE         67   DOF  5
   INSTANCE: PART-1-3                                                                        
 LARGEST CORRECTION TO ROTATION    -2.189E-06   AT NODE         11   DOF  6
   INSTANCE: PART-1-1                                                                        
          THE MOMENT    EQUILIBRIUM EQUATIONS HAVE CONVERGED

 ITERATION SUMMARY FOR THE INCREMENT:   2 TOTAL ITERATIONS, OF WHICH
   0 ARE SEVERE DISCONTINUITY ITERATIONS AND  2 ARE EQUILIBRIUM ITERATIONS.

 TIME INCREMENT COMPLETED  0.100    ,  FRACTION OF STEP COMPLETED  0.828    
 STEP TIME COMPLETED       0.828    ,  TOTAL TIME COMPLETED        0.828    


  INCREMENT    12 STARTS. ATTEMPT NUMBER  1, TIME INCREMENT  0.100    
 
	SYMMETRIC DIRECT SPARSE SOLVER RUNNING ON
 	1 HOST:        1 MPI RANK  x 2 THREADS
 	NUMBER OF EQUATIONS:     2778
 	NUMBER OF RHS:           1
 	NUMBER OF FLOPS:         3.638e+07

     CHECK POINT   START OF SOLVER    

     CHECK POINT  END OF SOLVER       

       ELAPSED USER TIME (SEC)      =   0.0000    
       ELAPSED SYSTEM TIME (SEC)    =  0.10000    
       ELAPSED TOTAL CPU TIME (SEC) =  0.10000    
       ELAPSED WALLCLOCK TIME (SEC) =          0

                   22 SEVERE DISCONTINUITIES OCCURRED DURING THIS ITERATION.
                   22 POINTS CHANGED FROM OPEN TO CLOSED

               CONVERGENCE CHECKS FOR SEVERE DISCONTINUITY ITERATION     1

   MAX. PENETRATION ERROR 116.906E-03   AT NODE PART-1-1.66 OF CONTACT PAIR 
   (GENERAL_CONTACT_FACES_5,GENERAL_CONTACT_FACES_1)
   MAX. CONTACT FORCE ERROR 3.15127     AT NODE PART-1-1.66 OF CONTACT PAIR 
   (GENERAL_CONTACT_FACES_5,GENERAL_CONTACT_FACES_1)
          PENETRATION ERROR TOO LARGE COMPARED TO DISPLACEMENT INCREMENT.

 AVERAGE FORCE                       1.17       TIME AVG. FORCE       0.530    
 LARGEST RESIDUAL FORCE             4.548E-02   AT NODE         66   DOF  3
   INSTANCE: PART-1-1                                                                        
 LARGEST INCREMENT OF DISP.         -8.00       AT NODE         11   DOF  3
   INSTANCE: PART-1-2                                                                        
 LARGEST CORRECTION TO DISP.       -1.944E-02   AT NODE          8   DOF  3
   INSTANCE: PART-1-1                                                                        
          FORCE     EQUILIBRIUM NOT ACHIEVED WITHIN TOLERANCE.

 AVERAGE MOMENT                     0.188       TIME AVG. MOMENT      8.103E-02
 LARGEST RESIDUAL MOMENT            1.327E-11   AT NODE         64   DOF  5
   INSTANCE: PART-1-3                                                                        
 LARGEST INCREMENT OF ROTATION     -8.927E-02   AT NODE         45   DOF  5
   INSTANCE: PART-1-3                                                                        
 LARGEST CORRECTION TO ROTATION    -5.592E-04   AT NODE        121   DOF  5
   INSTANCE: PART-2-1                                                                        
          THE MOMENT    EQUILIBRIUM EQUATIONS HAVE CONVERGED
 
	SYMMETRIC DIRECT SPARSE SOLVER RUNNING ON
 	1 HOST:        1 MPI RANK  x 2 THREADS
 	NUMBER OF EQUATIONS:     2778
 	NUMBER OF RHS:           1
 	NUMBER OF FLOPS:         3.649e+07

     CHECK POINT   START OF SOLVER    

     CHECK POINT  END OF SOLVER       

       ELAPSED USER TIME (SEC)      =   0.0000    
       ELAPSED SYSTEM TIME (SEC)    =   0.0000    
       ELAPSED TOTAL CPU TIME (SEC) =   0.0000    
       ELAPSED WALLCLOCK TIME (SEC) =          1

                    2 SEVERE DISCONTINUITIES OCCURRED DURING THIS ITERATION.
                    2 POINTS CHANGED FROM CLOSED TO OPEN

               CONVERGENCE CHECKS FOR SEVERE DISCONTINUITY ITERATION     2

   MAX. PENETRATION ERROR 7.24123E-03 AT NODE PART-1-1.22 OF CONTACT PAIR 
   (GENERAL_CONTACT_FACES_5,GENERAL_CONTACT_FACES_1)
   MAX. CONTACT FORCE ERROR 187.621E-03   AT NODE PART-1-1.22 OF CONTACT PAIR 
   (GENERAL_CONTACT_FACES_5,GENERAL_CONTACT_FACES_1)
          THE CONTACT CONSTRAINT ERRORS ARE WITHIN THE TOLERANCES.

 AVERAGE FORCE                       1.16       TIME AVG. FORCE       0.529    
 LARGEST RESIDUAL FORCE              4.40       AT NODE        110   DOF  3
   INSTANCE: PART-1-1                                                                        
 LARGEST INCREMENT OF DISP.         -8.00       AT NODE         11   DOF  3
   INSTANCE: PART-1-2                                                                        
 LARGEST CORRECTION TO DISP.        0.978       AT NODE        115   DOF  3
   INSTANCE: PART-2-1                                                                        
          FORCE     EQUILIBRIUM NOT ACHIEVED WITHIN TOLERANCE.

 AVERAGE MOMENT                     0.232       TIME AVG. MOMENT      8.470E-02
 LARGEST RESIDUAL MOMENT           -1.070E-11   AT NODE         52   DOF  5
   INSTANCE: PART-1-3                                                                        
 LARGEST INCREMENT OF ROTATION      0.143       AT NODE        121   DOF  5
   INSTANCE: PART-2-1                                                                        
 LARGEST CORRECTION TO ROTATION    -9.036E-02   AT NODE        111   DOF  5
   INSTANCE: PART-2-1                                                                        
          THE MOMENT    EQUILIBRIUM EQUATIONS HAVE CONVERGED
 
	SYMMETRIC DIRECT SPARSE SOLVER RUNNING ON
 	1 HOST:        1 MPI RANK  x 2 THREADS
 	NUMBER OF EQUATIONS:     2778
 	NUMBER OF RHS:           1
 	NUMBER OF FLOPS:         3.649e+07

     CHECK POINT   START OF SOLVER    

     CHECK POINT  END OF SOLVER       

       ELAPSED USER TIME (SEC)      =  0.10000    
       ELAPSED SYSTEM TIME (SEC)    =   0.0000    
       ELAPSED TOTAL CPU TIME (SEC) =  0.10000    
       ELAPSED WALLCLOCK TIME (SEC) =          0

               CONVERGENCE CHECKS FOR EQUILIBRIUM ITERATION     1

   MAX. PENETRATION ERROR -1.71782E-03 AT NODE PART-2-1.1 OF CONTACT PAIR 
   (GENERAL_CONTACT_FACES_2,GENERAL_CONTACT_FACES_1)
   MAX. CONTACT FORCE ERROR -43.7055E-03  AT NODE PART-2-1.12 OF CONTACT PAIR 
   (GENERAL_CONTACT_FACES_2,GENERAL_CONTACT_FACES_1)
          THE CONTACT CONSTRAINTS HAVE CONVERGED.

 AVERAGE FORCE                       1.15       TIME AVG. FORCE       0.528    
 LARGEST RESIDUAL FORCE            -0.275       AT NODE        110   DOF  3
   INSTANCE: PART-1-1                                                                        
 LARGEST INCREMENT OF DISP.         -8.00       AT NODE         11   DOF  3
   INSTANCE: PART-1-2                                                                        
 LARGEST CORRECTION TO DISP.        0.105       AT NODE        115   DOF  1
   INSTANCE: PART-2-1                                                                        
          FORCE     EQUILIBRIUM NOT ACHIEVED WITHIN TOLERANCE.

 AVERAGE MOMENT                     0.226       TIME AVG. MOMENT      8.421E-02
 LARGEST RESIDUAL MOMENT            1.058E-11   AT NODE         76   DOF  6
   INSTANCE: PART-1-3                                                                        
 LARGEST INCREMENT OF ROTATION      0.137       AT NODE         11   DOF  5
   INSTANCE: PART-2-1                                                                        
 LARGEST CORRECTION TO ROTATION     9.688E-03   AT NODE        111   DOF  5
   INSTANCE: PART-2-1                                                                        
          THE MOMENT    EQUILIBRIUM RESPONSE WAS LINEAR IN THIS INCREMENT
 
	SYMMETRIC DIRECT SPARSE SOLVER RUNNING ON
 	1 HOST:        1 MPI RANK  x 2 THREADS
 	NUMBER OF EQUATIONS:     2778
 	NUMBER OF RHS:           1
 	NUMBER OF FLOPS:         3.649e+07

     CHECK POINT   START OF SOLVER    

     CHECK POINT  END OF SOLVER       

       ELAPSED USER TIME (SEC)      =  0.10000    
       ELAPSED SYSTEM TIME (SEC)    =   0.0000    
       ELAPSED TOTAL CPU TIME (SEC) =  0.10000    
       ELAPSED WALLCLOCK TIME (SEC) =          0

               CONVERGENCE CHECKS FOR EQUILIBRIUM ITERATION     2

   MAX. PENETRATION ERROR 75.7449E-06  AT NODE PART-1-1.55 OF CONTACT PAIR 
   (GENERAL_CONTACT_FACES_5,GENERAL_CONTACT_FACES_1)
   MAX. CONTACT FORCE ERROR 1.97175E-03 AT NODE PART-1-1.55 OF CONTACT PAIR 
   (GENERAL_CONTACT_FACES_5,GENERAL_CONTACT_FACES_1)
          THE CONTACT CONSTRAINTS HAVE CONVERGED.

 AVERAGE FORCE                       1.15       TIME AVG. FORCE       0.528    
 LARGEST RESIDUAL FORCE            -6.257E-03   AT NODE         22   DOF  3
   INSTANCE: PART-1-1                                                                        
 LARGEST INCREMENT OF DISP.         -8.00       AT NODE         11   DOF  3
   INSTANCE: PART-1-2                                                                        
 LARGEST CORRECTION TO DISP.       -3.273E-03   AT NODE          5   DOF  3
   INSTANCE: PART-2-1                                                                        
          FORCE     EQUILIBRIUM NOT ACHIEVED WITHIN TOLERANCE.

 AVERAGE MOMENT                     0.226       TIME AVG. MOMENT      8.421E-02
 LARGEST RESIDUAL MOMENT           -9.771E-12   AT NODE         68   DOF  6
   INSTANCE: PART-1-1                                                                        
 LARGEST INCREMENT OF ROTATION      0.137       AT NODE         11   DOF  5
   INSTANCE: PART-2-1                                                                        
 LARGEST CORRECTION TO ROTATION     2.440E-04   AT NODE          1   DOF  5
   INSTANCE: PART-2-1                                                                        
          THE MOMENT    EQUILIBRIUM EQUATIONS HAVE CONVERGED
 
	SYMMETRIC DIRECT SPARSE SOLVER RUNNING ON
 	1 HOST:        1 MPI RANK  x 2 THREADS
 	NUMBER OF EQUATIONS:     2778
 	NUMBER OF RHS:           1
 	NUMBER OF FLOPS:         3.649e+07

     CHECK POINT   START OF SOLVER    

     CHECK POINT  END OF SOLVER       

       ELAPSED USER TIME (SEC)      =   0.0000    
       ELAPSED SYSTEM TIME (SEC)    =   0.0000    
       ELAPSED TOTAL CPU TIME (SEC) =   0.0000    
       ELAPSED WALLCLOCK TIME (SEC) =          0

               CONVERGENCE CHECKS FOR EQUILIBRIUM ITERATION     3

   MAX. PENETRATION ERROR 67.6521E-06  AT NODE PART-1-1.22 OF CONTACT PAIR 
   (GENERAL_CONTACT_FACES_5,GENERAL_CONTACT_FACES_1)
   MAX. CONTACT FORCE ERROR 1.76027E-03 AT NODE PART-1-1.22 OF CONTACT PAIR 
   (GENERAL_CONTACT_FACES_5,GENERAL_CONTACT_FACES_1)
          THE CONTACT CONSTRAINTS HAVE CONVERGED.

 AVERAGE FORCE                       1.15       TIME AVG. FORCE       0.528    
 LARGEST RESIDUAL FORCE             9.407E-04   AT NODE         66   DOF  3
   INSTANCE: PART-1-1                                                                        
 LARGEST INCREMENT OF DISP.         -8.00       AT NODE         11   DOF  3
   INSTANCE: PART-1-2                                                                        
 LARGEST CORRECTION TO DISP.        6.765E-04   AT NODE          7   DOF  1
   INSTANCE: PART-1-1                                                                        
          THE FORCE     EQUILIBRIUM EQUATIONS HAVE CONVERGED

 AVERAGE MOMENT                     0.226       TIME AVG. MOMENT      8.421E-02
 LARGEST RESIDUAL MOMENT            1.173E-11   AT NODE         24   DOF  5
   INSTANCE: PART-1-1                                                                        
 LARGEST INCREMENT OF ROTATION      0.137       AT NODE         11   DOF  5
   INSTANCE: PART-2-1                                                                        
 LARGEST CORRECTION TO ROTATION    -3.368E-05   AT NODE         34   DOF  5
   INSTANCE: PART-2-1                                                                        
          THE MOMENT    EQUILIBRIUM EQUATIONS HAVE CONVERGED

 ITERATION SUMMARY FOR THE INCREMENT:   5 TOTAL ITERATIONS, OF WHICH
   2 ARE SEVERE DISCONTINUITY ITERATIONS AND  3 ARE EQUILIBRIUM ITERATIONS.

 TIME INCREMENT COMPLETED  0.100    ,  FRACTION OF STEP COMPLETED  0.928    
 STEP TIME COMPLETED       0.928    ,  TOTAL TIME COMPLETED        0.928    


  INCREMENT    13 STARTS. ATTEMPT NUMBER  1, TIME INCREMENT  7.188E-02
 
	SYMMETRIC DIRECT SPARSE SOLVER RUNNING ON
 	1 HOST:        1 MPI RANK  x 2 THREADS
 	NUMBER OF EQUATIONS:     2778
 	NUMBER OF RHS:           1
 	NUMBER OF FLOPS:         3.649e+07

     CHECK POINT   START OF SOLVER    

     CHECK POINT  END OF SOLVER       

       ELAPSED USER TIME (SEC)      =   0.0000    
       ELAPSED SYSTEM TIME (SEC)    =   0.0000    
       ELAPSED TOTAL CPU TIME (SEC) =   0.0000    
       ELAPSED WALLCLOCK TIME (SEC) =          0

                    2 SEVERE DISCONTINUITIES OCCURRED DURING THIS ITERATION.
                    2 POINTS CHANGED FROM OPEN TO CLOSED

               CONVERGENCE CHECKS FOR SEVERE DISCONTINUITY ITERATION     1

   MAX. PENETRATION ERROR 1.91319E-03 AT NODE PART-1-1.121 OF CONTACT PAIR 
   (GENERAL_CONTACT_FACES_5,GENERAL_CONTACT_FACES_1)
   MAX. CONTACT FORCE ERROR 24.9133E-03  AT NODE PART-1-1.121 OF CONTACT PAIR 
   (GENERAL_CONTACT_FACES_5,GENERAL_CONTACT_FACES_1)
          THE CONTACT CONSTRAINT ERRORS ARE WITHIN THE TOLERANCES.

 AVERAGE FORCE                       1.24       TIME AVG. FORCE       0.582    
 LARGEST RESIDUAL FORCE             0.148       AT NODE         22   DOF  3
   INSTANCE: PART-1-1                                                                        
 LARGEST INCREMENT OF DISP.         -5.75       AT NODE         11   DOF  3
   INSTANCE: PART-1-2                                                                        
 LARGEST CORRECTION TO DISP.        6.452E-02   AT NODE        115   DOF  3
   INSTANCE: PART-2-1                                                                        
          FORCE     EQUILIBRIUM NOT ACHIEVED WITHIN TOLERANCE.

 AVERAGE MOMENT                     0.278       TIME AVG. MOMENT      9.909E-02
 LARGEST RESIDUAL MOMENT           -1.480E-11   AT NODE         65   DOF  5
   INSTANCE: PART-1-3                                                                        
 LARGEST INCREMENT OF ROTATION      0.102       AT NODE        121   DOF  5
   INSTANCE: PART-2-1                                                                        
 LARGEST CORRECTION TO ROTATION    -6.898E-03   AT NODE          1   DOF  5
   INSTANCE: PART-2-1                                                                        
          THE MOMENT    EQUILIBRIUM EQUATIONS HAVE CONVERGED
 
	SYMMETRIC DIRECT SPARSE SOLVER RUNNING ON
 	1 HOST:        1 MPI RANK  x 2 THREADS
 	NUMBER OF EQUATIONS:     2778
 	NUMBER OF RHS:           1
 	NUMBER OF FLOPS:         3.649e+07

     CHECK POINT   START OF SOLVER    

     CHECK POINT  END OF SOLVER       

       ELAPSED USER TIME (SEC)      =  0.10000    
       ELAPSED SYSTEM TIME (SEC)    =   0.0000    
       ELAPSED TOTAL CPU TIME (SEC) =  0.10000    
       ELAPSED WALLCLOCK TIME (SEC) =          0

               CONVERGENCE CHECKS FOR EQUILIBRIUM ITERATION     1

   MAX. PENETRATION ERROR -103.468E-06   AT NODE PART-2-1.1 OF CONTACT PAIR 
   (GENERAL_CONTACT_FACES_2,GENERAL_CONTACT_FACES_1)
   MAX. CONTACT FORCE ERROR -2.43338E-03 AT NODE PART-2-1.45 OF CONTACT PAIR 
   (GENERAL_CONTACT_FACES_2,GENERAL_CONTACT_FACES_1)
          THE CONTACT CONSTRAINTS HAVE CONVERGED.

 AVERAGE FORCE                       1.23       TIME AVG. FORCE       0.582    
 LARGEST RESIDUAL FORCE            -3.698E-03   AT NODE         66   DOF  3
   INSTANCE: PART-1-1                                                                        
 LARGEST INCREMENT OF DISP.         -5.75       AT NODE         11   DOF  3
   INSTANCE: PART-1-2                                                                        
 LARGEST CORRECTION TO DISP.        3.457E-03   AT NODE        120   DOF  3
   INSTANCE: PART-1-1                                                                        
          FORCE     EQUILIBRIUM NOT ACHIEVED WITHIN TOLERANCE.

 AVERAGE MOMENT                     0.278       TIME AVG. MOMENT      9.909E-02
 LARGEST RESIDUAL MOMENT            1.136E-11   AT NODE         79   DOF  5
   INSTANCE: PART-1-1                                                                        
 LARGEST INCREMENT OF ROTATION      0.102       AT NODE        121   DOF  5
   INSTANCE: PART-2-1                                                                        
 LARGEST CORRECTION TO ROTATION     8.483E-04   AT NODE        121   DOF  5
   INSTANCE: PART-1-1                                                                        
          THE MOMENT    EQUILIBRIUM RESPONSE WAS LINEAR IN THIS INCREMENT
 
	SYMMETRIC DIRECT SPARSE SOLVER RUNNING ON
 	1 HOST:        1 MPI RANK  x 2 THREADS
 	NUMBER OF EQUATIONS:     2778
 	NUMBER OF RHS:           1
 	NUMBER OF FLOPS:         3.649e+07

     CHECK POINT   START OF SOLVER    

     CHECK POINT  END OF SOLVER       

       ELAPSED USER TIME (SEC)      =   0.0000    
       ELAPSED SYSTEM TIME (SEC)    =   0.0000    
       ELAPSED TOTAL CPU TIME (SEC) =   0.0000    
       ELAPSED WALLCLOCK TIME (SEC) =          1

               CONVERGENCE CHECKS FOR EQUILIBRIUM ITERATION     2

   MAX. PENETRATION ERROR -69.2233E-06  AT NODE PART-2-1.1 OF CONTACT PAIR 
   (GENERAL_CONTACT_FACES_2,GENERAL_CONTACT_FACES_1)
   MAX. CONTACT FORCE ERROR -1.74242E-03 AT NODE PART-2-1.12 OF CONTACT PAIR 
   (GENERAL_CONTACT_FACES_2,GENERAL_CONTACT_FACES_1)
          THE CONTACT CONSTRAINTS HAVE CONVERGED.

 AVERAGE FORCE                       1.23       TIME AVG. FORCE       0.582    
 LARGEST RESIDUAL FORCE            -2.884E-04   AT NODE         88   DOF  3
   INSTANCE: PART-1-1                                                                        
 LARGEST INCREMENT OF DISP.         -5.75       AT NODE         11   DOF  3
   INSTANCE: PART-1-2                                                                        
 LARGEST CORRECTION TO DISP.        5.688E-04   AT NODE        113   DOF  1
   INSTANCE: PART-2-1                                                                        
          THE FORCE     EQUILIBRIUM EQUATIONS HAVE CONVERGED

 AVERAGE MOMENT                     0.278       TIME AVG. MOMENT      9.909E-02
 LARGEST RESIDUAL MOMENT           -1.072E-11   AT NODE         74   DOF  5
   INSTANCE: PART-1-2                                                                        
 LARGEST INCREMENT OF ROTATION     -0.102       AT NODE        111   DOF  5
   INSTANCE: PART-1-1                                                                        
 LARGEST CORRECTION TO ROTATION     3.509E-05   AT NODE        111   DOF  5
   INSTANCE: PART-2-1                                                                        
          THE MOMENT    EQUILIBRIUM EQUATIONS HAVE CONVERGED

 ITERATION SUMMARY FOR THE INCREMENT:   3 TOTAL ITERATIONS, OF WHICH
   1 ARE SEVERE DISCONTINUITY ITERATIONS AND  2 ARE EQUILIBRIUM ITERATIONS.

 TIME INCREMENT COMPLETED  7.188E-02,  FRACTION OF STEP COMPLETED   1.00    
 STEP TIME COMPLETED        1.00    ,  TOTAL TIME COMPLETED         1.00    
1

   Abaqus 2022                                  Date 19-Dez-2023   Time 16:38:08
   For use by MONTANUNIVERSITAT LEOBEN under license from Dassault Systemes or its subsidiary.

                                                                                 
                                                                                 
 STEP    2     INCREMENT     1     STEP TIME    0.00    


[...]

 ***WARNING: DISPLACEMENT INCREMENT FOR CONTACT IS TOO BIG.

 ***WARNING: DISPLACEMENT INCREMENT FOR CONTACT IS TOO BIG.

 ***WARNING: DISPLACEMENT INCREMENT FOR CONTACT IS TOO BIG.

 ***WARNING: CONVERGENCE JUDGED UNLIKELY.  INCREMENT WILL BE ATTEMPTED AGAIN 
             WITH A TIME INCREMENT OF 1.44651E-02


  INCREMENT    36 STARTS. ATTEMPT NUMBER  2, TIME INCREMENT  1.447E-02
 
	SYMMETRIC DIRECT SPARSE SOLVER RUNNING ON
 	1 HOST:        1 MPI RANK  x 2 THREADS
 	NUMBER OF EQUATIONS:     2778
 	NUMBER OF RHS:           1
 	NUMBER OF FLOPS:         4.273e+07

     CHECK POINT   START OF SOLVER    

     CHECK POINT  END OF SOLVER       

       ELAPSED USER TIME (SEC)      =   0.0000    
       ELAPSED SYSTEM TIME (SEC)    =   0.0000    
       ELAPSED TOTAL CPU TIME (SEC) =   0.0000    
       ELAPSED WALLCLOCK TIME (SEC) =          0

                   22 SEVERE DISCONTINUITIES OCCURRED DURING THIS ITERATION.
                   22 POINTS CHANGED FROM OPEN TO CLOSED

               CONVERGENCE CHECKS FOR SEVERE DISCONTINUITY ITERATION     1

   MAX. PENETRATION ERROR 146.466E-03   AT NODE PART-2-1.1 OF CONTACT PAIR 
   (GENERAL_CONTACT_EDGES_2,GENERAL_CONTACT_FACES_1)
   MAX. CONTACT FORCE ERROR 12.3535      AT NODE PART-2-1.12 OF CONTACT PAIR 
   (GENERAL_CONTACT_EDGES_2,GENERAL_CONTACT_FACES_1)
          PENETRATION ERROR TOO LARGE COMPARED TO DISPLACEMENT INCREMENT.

 AVERAGE FORCE                      3.885E-02   TIME AVG. FORCE       5.177E-02
 LARGEST RESIDUAL FORCE             0.272       AT NODE         33   DOF  3
   INSTANCE: PART-1-1                                                                        
 LARGEST INCREMENT OF DISP.         -5.51       AT NODE          7   DOF  3
   INSTANCE: PART-1-2                                                                        
 LARGEST CORRECTION TO DISP.        -3.92       AT NODE        117   DOF  3
   INSTANCE: PART-1-2                                                                        
          FORCE     EQUILIBRIUM NOT ACHIEVED WITHIN TOLERANCE.

 AVERAGE MOMENT                     1.263E-03   TIME AVG. MOMENT      4.639E-02
 LARGEST RESIDUAL MOMENT            2.606E-12   AT NODE         40   DOF  5
   INSTANCE: PART-2-1                                                                        
 LARGEST INCREMENT OF ROTATION     -8.220E-03   AT NODE        121   DOF  5
   INSTANCE: PART-1-1                                                                        
 LARGEST CORRECTION TO ROTATION     1.349E-02   AT NODE        111   DOF  5
   INSTANCE: PART-2-1                                                                        
          THE MOMENT    EQUILIBRIUM EQUATIONS HAVE CONVERGED
 
	SYMMETRIC DIRECT SPARSE SOLVER RUNNING ON
 	1 HOST:        1 MPI RANK  x 2 THREADS
 	NUMBER OF EQUATIONS:     2778
 	NUMBER OF RHS:           1
 	NUMBER OF FLOPS:         4.276e+07

     CHECK POINT   START OF SOLVER    

     CHECK POINT  END OF SOLVER       

       ELAPSED USER TIME (SEC)      =   0.0000    
       ELAPSED SYSTEM TIME (SEC)    =   0.0000    
       ELAPSED TOTAL CPU TIME (SEC) =   0.0000    
       ELAPSED WALLCLOCK TIME (SEC) =          1

               CONVERGENCE CHECKS FOR EQUILIBRIUM ITERATION     1

   MAX. PENETRATION ERROR -2.38681E-15 AT NODE PART-1-1.99 OF CONTACT PAIR 
   (GENERAL_CONTACT_EDGES_5,GENERAL_CONTACT_FACES_1)
   MAX. CONTACT FORCE ERROR -226.484E-15   AT NODE PART-1-1.99 OF CONTACT PAIR 
   (GENERAL_CONTACT_EDGES_5,GENERAL_CONTACT_FACES_1)
          THE CONTACT CONSTRAINTS HAVE CONVERGED.

 AVERAGE FORCE                      6.081E-04   TIME AVG. FORCE       5.071E-02
 LARGEST RESIDUAL FORCE             0.272       AT NODE         33   DOF  3
   INSTANCE: PART-1-1                                                                        
 LARGEST INCREMENT OF DISP.         -5.24       AT NODE        117   DOF  3
   INSTANCE: PART-1-2                                                                        
 LARGEST CORRECTION TO DISP.        0.293       AT NODE         11   DOF  3
   INSTANCE: PART-1-1                                                                        
          FORCE     EQUILIBRIUM NOT ACHIEVED WITHIN TOLERANCE.

 AVERAGE MOMENT                     1.610E-03   TIME AVG. MOMENT      4.640E-02
 LARGEST RESIDUAL MOMENT           -3.717E-13   AT NODE         37   DOF  5
   INSTANCE: PART-1-1                                                                        
 LARGEST INCREMENT OF ROTATION     -8.965E-03   AT NODE         11   DOF  5
   INSTANCE: PART-1-1                                                                        
 LARGEST CORRECTION TO ROTATION     7.456E-04   AT NODE          1   DOF  5
   INSTANCE: PART-2-1                                                                        
          THE MOMENT    EQUILIBRIUM RESPONSE WAS LINEAR IN THIS INCREMENT
 
	SYMMETRIC DIRECT SPARSE SOLVER RUNNING ON
 	1 HOST:        1 MPI RANK  x 2 THREADS
 	NUMBER OF EQUATIONS:     2778
 	NUMBER OF RHS:           1
 	NUMBER OF FLOPS:         4.276e+07

     CHECK POINT   START OF SOLVER    

     CHECK POINT  END OF SOLVER       

       ELAPSED USER TIME (SEC)      =   0.0000    
       ELAPSED SYSTEM TIME (SEC)    =   0.0000    
       ELAPSED TOTAL CPU TIME (SEC) =   0.0000    
       ELAPSED WALLCLOCK TIME (SEC) =          0

               CONVERGENCE CHECKS FOR EQUILIBRIUM ITERATION     2

   MAX. PENETRATION ERROR 147.989E-18   AT NODE PART-2-1.111 OF CONTACT PAIR 
   (GENERAL_CONTACT_EDGES_2,GENERAL_CONTACT_FACES_1)
   MAX. CONTACT FORCE ERROR 13.1965E-15  AT NODE PART-1-1.99 OF CONTACT PAIR 
   (GENERAL_CONTACT_EDGES_5,GENERAL_CONTACT_FACES_1)
          THE CONTACT CONSTRAINTS HAVE CONVERGED.

 AVERAGE FORCE                      4.156E-04   TIME AVG. FORCE       5.070E-02
 LARGEST RESIDUAL FORCE            -1.004E-12   AT NODE         37   DOF  3
   INSTANCE: PART-2-1                                                                        
 LARGEST INCREMENT OF DISP.         -5.24       AT NODE        117   DOF  3
   INSTANCE: PART-1-2                                                                        
 LARGEST CORRECTION TO DISP.        2.929E-04   AT NODE         11   DOF  3
   INSTANCE: PART-1-1                                                                        
          THE FORCE     EQUILIBRIUM EQUATIONS HAVE CONVERGED

 AVERAGE MOMENT                     1.610E-03   TIME AVG. MOMENT      4.640E-02
 LARGEST RESIDUAL MOMENT           -3.440E-13   AT NODE         73   DOF  5
   INSTANCE: PART-1-3                                                                        
 LARGEST INCREMENT OF ROTATION     -8.966E-03   AT NODE         11   DOF  5
   INSTANCE: PART-1-1                                                                        
 LARGEST CORRECTION TO ROTATION     7.456E-07   AT NODE          1   DOF  5
   INSTANCE: PART-2-1                                                                        
          THE MOMENT    EQUILIBRIUM EQUATIONS HAVE CONVERGED
          TIME INCREMENT MAY NOW INCREASE TO    2.170E-02

 ITERATION SUMMARY FOR THE INCREMENT:   3 TOTAL ITERATIONS, OF WHICH
   1 ARE SEVERE DISCONTINUITY ITERATIONS AND  2 ARE EQUILIBRIUM ITERATIONS.

 TIME INCREMENT COMPLETED  1.447E-02,  FRACTION OF STEP COMPLETED  0.933    
 STEP TIME COMPLETED       0.933    ,  TOTAL TIME COMPLETED         1.93    


  INCREMENT    37 STARTS. ATTEMPT NUMBER  1, TIME INCREMENT  2.170E-02
 
	SYMMETRIC DIRECT SPARSE SOLVER RUNNING ON
 	1 HOST:        1 MPI RANK  x 2 THREADS
 	NUMBER OF EQUATIONS:     2778
 	NUMBER OF RHS:           1
 	NUMBER OF FLOPS:         4.276e+07

     CHECK POINT   START OF SOLVER    

     CHECK POINT  END OF SOLVER       

       ELAPSED USER TIME (SEC)      =   0.0000    
       ELAPSED SYSTEM TIME (SEC)    =   0.0000    
       ELAPSED TOTAL CPU TIME (SEC) =   0.0000    
       ELAPSED WALLCLOCK TIME (SEC) =          0

               CONVERGENCE CHECKS FOR EQUILIBRIUM ITERATION     1

   MAX. PENETRATION ERROR 183.254E-15   AT NODE PART-1-1.110 OF CONTACT PAIR 
   (GENERAL_CONTACT_EDGES_5,GENERAL_CONTACT_FACES_1)
   MAX. CONTACT FORCE ERROR 15.4569E-12  AT NODE PART-1-1.110 OF CONTACT PAIR 
   (GENERAL_CONTACT_EDGES_5,GENERAL_CONTACT_FACES_1)
          THE CONTACT CONSTRAINTS HAVE CONVERGED.

 AVERAGE FORCE                      2.556E-02   TIME AVG. FORCE       5.002E-02
 LARGEST RESIDUAL FORCE              6.92       AT NODE         99   DOF  3
   INSTANCE: PART-1-1                                                                        
 LARGEST INCREMENT OF DISP.        -0.318       AT NODE        118   DOF  3
   INSTANCE: PART-1-2                                                                        
 LARGEST CORRECTION TO DISP.         7.55       AT NODE        116   DOF  3
   INSTANCE: PART-1-3                                                                        
          FORCE     EQUILIBRIUM NOT ACHIEVED WITHIN TOLERANCE.

 AVERAGE MOMENT                     1.171E-02   TIME AVG. MOMENT      4.547E-02
 LARGEST RESIDUAL MOMENT            5.265E-12   AT NODE         60   DOF  5
   INSTANCE: PART-1-1                                                                        
 LARGEST INCREMENT OF ROTATION     -8.107E-03   AT NODE        111   DOF  5
   INSTANCE: PART-1-3                                                                        
 LARGEST CORRECTION TO ROTATION    -5.351E-03   AT NODE          1   DOF  5
   INSTANCE: PART-2-1                                                                        
          THE MOMENT    EQUILIBRIUM RESPONSE WAS LINEAR IN THIS INCREMENT
 
	SYMMETRIC DIRECT SPARSE SOLVER RUNNING ON
 	1 HOST:        1 MPI RANK  x 2 THREADS
 	NUMBER OF EQUATIONS:     2778
 	NUMBER OF RHS:           1
 	NUMBER OF FLOPS:         4.276e+07

     CHECK POINT   START OF SOLVER    

     CHECK POINT  END OF SOLVER       

       ELAPSED USER TIME (SEC)      =  0.10000    
       ELAPSED SYSTEM TIME (SEC)    =   0.0000    
       ELAPSED TOTAL CPU TIME (SEC) =  0.10000    
       ELAPSED WALLCLOCK TIME (SEC) =          0

               CONVERGENCE CHECKS FOR EQUILIBRIUM ITERATION     2

   MAX. PENETRATION ERROR -657.389E-18   AT NODE PART-2-1.12 OF CONTACT PAIR 
   (GENERAL_CONTACT_EDGES_2,GENERAL_CONTACT_FACES_1)
   MAX. CONTACT FORCE ERROR -55.4484E-15  AT NODE PART-2-1.12 OF CONTACT PAIR 
   (GENERAL_CONTACT_EDGES_2,GENERAL_CONTACT_FACES_1)
          THE CONTACT CONSTRAINTS HAVE CONVERGED.

 AVERAGE FORCE                      1.056E-03   TIME AVG. FORCE       4.936E-02
 LARGEST RESIDUAL FORCE             4.795E-11   AT NODE         55   DOF  3
   INSTANCE: PART-1-1                                                                        
 LARGEST INCREMENT OF DISP.        -0.310       AT NODE        118   DOF  3
   INSTANCE: PART-1-2                                                                        
 LARGEST CORRECTION TO DISP.        7.456E-03   AT NODE        121   DOF  3
   INSTANCE: PART-1-1                                                                        
          THE FORCE     EQUILIBRIUM EQUATIONS HAVE CONVERGED

 AVERAGE MOMENT                     1.172E-02   TIME AVG. MOMENT      4.547E-02
 LARGEST RESIDUAL MOMENT           -3.268E-13   AT NODE         30   DOF  5
   INSTANCE: PART-2-1                                                                        
 LARGEST INCREMENT OF ROTATION     -8.116E-03   AT NODE        111   DOF  5
   INSTANCE: PART-1-3                                                                        
 LARGEST CORRECTION TO ROTATION     8.793E-06   AT NODE        111   DOF  5
   INSTANCE: PART-2-1                                                                        
          THE MOMENT    EQUILIBRIUM EQUATIONS HAVE CONVERGED
          TIME INCREMENT MAY NOW INCREASE TO    3.255E-02

 ITERATION SUMMARY FOR THE INCREMENT:   2 TOTAL ITERATIONS, OF WHICH
   0 ARE SEVERE DISCONTINUITY ITERATIONS AND  2 ARE EQUILIBRIUM ITERATIONS.

 TIME INCREMENT COMPLETED  2.170E-02,  FRACTION OF STEP COMPLETED  0.955    
 STEP TIME COMPLETED       0.955    ,  TOTAL TIME COMPLETED         1.95    


  INCREMENT    38 STARTS. ATTEMPT NUMBER  1, TIME INCREMENT  3.255E-02
 
	SYMMETRIC DIRECT SPARSE SOLVER RUNNING ON
 	1 HOST:        1 MPI RANK  x 2 THREADS
 	NUMBER OF EQUATIONS:     2778
 	NUMBER OF RHS:           1
 	NUMBER OF FLOPS:         4.276e+07

     CHECK POINT   START OF SOLVER    

     CHECK POINT  END OF SOLVER       

       ELAPSED USER TIME (SEC)      =   0.0000    
       ELAPSED SYSTEM TIME (SEC)    =   0.0000    
       ELAPSED TOTAL CPU TIME (SEC) =   0.0000    
       ELAPSED WALLCLOCK TIME (SEC) =          0

                   22 SEVERE DISCONTINUITIES OCCURRED DURING THIS ITERATION.
                   22 POINTS CHANGED FROM CLOSED TO OPEN

               CONVERGENCE CHECKS FOR SEVERE DISCONTINUITY ITERATION     1

   MAX. CONTACT FORCE ERROR -3.84476E-03 AT NODE PART-2-1.56 OF CONTACT PAIR 
   (GENERAL_CONTACT_EDGES_2,GENERAL_CONTACT_FACES_1)
          THE CONTACT CONSTRAINT ERRORS ARE WITHIN THE TOLERANCES.

 AVERAGE FORCE                      9.724E-04   TIME AVG. FORCE       4.809E-02
 LARGEST RESIDUAL FORCE             7.331E-03   AT NODE         66   DOF  3
   INSTANCE: PART-1-1                                                                        
 LARGEST INCREMENT OF DISP.         0.781       AT NODE        118   DOF  3
   INSTANCE: PART-1-3                                                                        
 LARGEST CORRECTION TO DISP.         1.25       AT NODE        118   DOF  3
   INSTANCE: PART-1-2                                                                        
          FORCE     EQUILIBRIUM NOT ACHIEVED WITHIN TOLERANCE.

 AVERAGE MOMENT                     1.076E-02   TIME AVG. MOMENT      4.455E-02
 LARGEST RESIDUAL MOMENT            7.215E-13   AT NODE         93   DOF  5
   INSTANCE: PART-1-2                                                                        
 LARGEST INCREMENT OF ROTATION     -2.227E-02   AT NODE        111   DOF  5
   INSTANCE: PART-2-1                                                                        
 LARGEST CORRECTION TO ROTATION    -3.442E-02   AT NODE        111   DOF  5
   INSTANCE: PART-2-1                                                                        
          THE MOMENT    EQUILIBRIUM EQUATIONS HAVE CONVERGED
 
	SYMMETRIC DIRECT SPARSE SOLVER RUNNING ON
 	1 HOST:        1 MPI RANK  x 2 THREADS
 	NUMBER OF EQUATIONS:     2778
 	NUMBER OF RHS:           1
 	NUMBER OF FLOPS:         4.273e+07

     CHECK POINT   START OF SOLVER    

     CHECK POINT  END OF SOLVER       

       ELAPSED USER TIME (SEC)      =  0.10000    
       ELAPSED SYSTEM TIME (SEC)    =   0.0000    
       ELAPSED TOTAL CPU TIME (SEC) =  0.10000    
       ELAPSED WALLCLOCK TIME (SEC) =          0

               CONVERGENCE CHECKS FOR EQUILIBRIUM ITERATION     1


 AVERAGE FORCE                      8.468E-04   TIME AVG. FORCE       4.808E-02
 LARGEST RESIDUAL FORCE             4.270E-12   AT NODE         72   DOF  3
   INSTANCE: PART-2-1                                                                        
 LARGEST INCREMENT OF DISP.          5.20       AT NODE        118   DOF  3
   INSTANCE: PART-1-3                                                                        
 LARGEST CORRECTION TO DISP.         4.50       AT NODE        121   DOF  3
   INSTANCE: PART-1-1                                                                        
          THE FORCE     EQUILIBRIUM RESPONSE WAS LINEAR IN THIS INCREMENT

 AVERAGE MOMENT                     8.347E-03   TIME AVG. MOMENT      4.449E-02
 LARGEST RESIDUAL MOMENT            3.113E-12   AT NODE         71   DOF  5
   INSTANCE: PART-2-1                                                                        
 LARGEST INCREMENT OF ROTATION     -1.987E-02   AT NODE        111   DOF  5
   INSTANCE: PART-2-1                                                                        
 LARGEST CORRECTION TO ROTATION     2.402E-03   AT NODE        111   DOF  5
   INSTANCE: PART-2-1                                                                        
          THE MOMENT    EQUILIBRIUM RESPONSE WAS LINEAR IN THIS INCREMENT

 ITERATION SUMMARY FOR THE INCREMENT:   2 TOTAL ITERATIONS, OF WHICH
   1 ARE SEVERE DISCONTINUITY ITERATIONS AND  1 ARE EQUILIBRIUM ITERATIONS.

 TIME INCREMENT COMPLETED  3.255E-02,  FRACTION OF STEP COMPLETED  0.987    
 STEP TIME COMPLETED       0.987    ,  TOTAL TIME COMPLETED         1.99    


  INCREMENT    39 STARTS. ATTEMPT NUMBER  1, TIME INCREMENT  1.282E-02
 
	SYMMETRIC DIRECT SPARSE SOLVER RUNNING ON
 	1 HOST:        1 MPI RANK  x 2 THREADS
 	NUMBER OF EQUATIONS:     2778
 	NUMBER OF RHS:           1
 	NUMBER OF FLOPS:         4.273e+07

     CHECK POINT   START OF SOLVER    

     CHECK POINT  END OF SOLVER       

       ELAPSED USER TIME (SEC)      =  0.10000    
       ELAPSED SYSTEM TIME (SEC)    =   0.0000    
       ELAPSED TOTAL CPU TIME (SEC) =  0.10000    
       ELAPSED WALLCLOCK TIME (SEC) =          0

               CONVERGENCE CHECKS FOR EQUILIBRIUM ITERATION     1


 AVERAGE FORCE                      5.616E-04   TIME AVG. FORCE       4.687E-02
 LARGEST RESIDUAL FORCE             1.098E-12   AT NODE         18   DOF  3
   INSTANCE: PART-1-3                                                                        
 LARGEST INCREMENT OF DISP.          1.05       AT NODE        110   DOF  3
   INSTANCE: PART-1-1                                                                        
 LARGEST CORRECTION TO DISP.        -1.46       AT NODE        118   DOF  3
   INSTANCE: PART-1-2                                                                        
          THE FORCE     EQUILIBRIUM RESPONSE WAS LINEAR IN THIS INCREMENT

 AVERAGE MOMENT                     2.390E-03   TIME AVG. MOMENT      4.341E-02
 LARGEST RESIDUAL MOMENT            1.440E-12   AT NODE         86   DOF  5
   INSTANCE: PART-1-2                                                                        
 LARGEST INCREMENT OF ROTATION     -1.332E-02   AT NODE        121   DOF  5
   INSTANCE: PART-1-1                                                                        
 LARGEST CORRECTION TO ROTATION     2.114E-02   AT NODE        111   DOF  5
   INSTANCE: PART-2-1                                                                        
          THE MOMENT    EQUILIBRIUM RESPONSE WAS LINEAR IN THIS INCREMENT

 ITERATION SUMMARY FOR THE INCREMENT:   1 TOTAL ITERATIONS, OF WHICH
   0 ARE SEVERE DISCONTINUITY ITERATIONS AND  1 ARE EQUILIBRIUM ITERATIONS.

 TIME INCREMENT COMPLETED  1.282E-02,  FRACTION OF STEP COMPLETED   1.00    
 STEP TIME COMPLETED        1.00    ,  TOTAL TIME COMPLETED         2.00    


          THE ANALYSIS HAS BEEN COMPLETED



     ANALYSIS SUMMARY:
     TOTAL OF         52  INCREMENTS
                      14  CUTBACKS IN AUTOMATIC INCREMENTATION
                     129  ITERATIONS INCLUDING CONTACT ITERATIONS IF PRESENT
                     129  PASSES THROUGH THE EQUATION SOLVER OF WHICH 
                     129  INVOLVE MATRIX DECOMPOSITION, INCLUDING
                       0  DECOMPOSITION(S) OF THE MASS MATRIX
                       1  REORDERING OF EQUATIONS TO MINIMIZE WAVEFRONT
                       0  ADDITIONAL RESIDUAL EVALUATIONS FOR LINE SEARCHES
                       0  ADDITIONAL OPERATOR EVALUATIONS FOR LINE SEARCHES
                     750  WARNING MESSAGES DURING USER INPUT PROCESSING
                      41  WARNING MESSAGES DURING ANALYSIS
                       0  ANALYSIS WARNINGS ARE NUMERICAL PROBLEM MESSAGES
                      16  ANALYSIS WARNINGS ARE NEGATIVE EIGENVALUE MESSAGES
                       0  ERROR MESSAGES



     JOB TIME SUMMARY
       USER TIME (SEC)      =   44.800    
       SYSTEM TIME (SEC)    =   5.4000    
       TOTAL CPU TIME (SEC) =   50.200    
       WALLCLOCK TIME (SEC) =         37
