1

   Abaqus 2022                                  Date 19-Dez-2023   Time 16:37:57
   For use by MONTANUNIVERSITAT LEOBEN under license from Dassault Systemes or its subsidiary.



                         The Abaqus Software is a product of:

                           Dassault Systemes SIMULIA Corp.
                           1301 Atwood Avenue, Suite 101W
                              Johnston, RI 02919, USA
 


                   The Abaqus Software is available only under license
                   from Dassault Systemes or its subsidiary and may be
                   used or reproduced only in accordance with the terms
                   of such license.
 
                          On machine kkv-pc-51 
                          you are authorized to run
                          Abaqus/Standard until 29-Feb-2024

                          Your site id is: 200000000002581 


 
                    For assistance or any other information you may
                    obtain contact information for your local office
                    from the world wide web at:

                      http://www.3ds.com/products/simulia/locations/

 
                * * * * * * * * * * * * * * * * * * * * * * * * * * * * * * 
                *                                                         * 
                *                   *****************                     * 
                *                   *  N O T I C E  *                     * 
                *                   *****************                     * 
                *                                                         * 
                *                                                         * 
                *                       Abaqus 2022                       * 
                *                                                         * 
                *          BUILD ID: 2021_09_15-19.57.30 176069           * 
                *                                                         * 
                *                                                         * 
                *  Please make sure you are using                         * 
                *  release Abaqus 2022 manuals                            * 
                *  plus the notes accompanying this release.              * 
                *                                                         * 
                *                                                         * 
                *                                                         * 
                *                                                         * 
                *                                                         * 
                *   This program may not be used for commercial purposes  * 
                *           without payment of a commercial fee.          * 
                *                                                         * 
                * * * * * * * * * * * * * * * * * * * * * * * * * * * * * * 


 



     PROCESSING PART, INSTANCE, AND ASSEMBLY INFORMATION
   *******************************************************


     END PROCESSING PART, INSTANCE, AND ASSEMBLY INFORMATION
   ***********************************************************




     OPTIONS BEING PROCESSED
   ***************************


  *Heading
  *Node
  *Element, type=S4
  *Nset, nset=ASSEMBLY_PART-1-1_SET-2
  *Elset, elset=ASSEMBLY_PART-1-1_SET-2
  *Node
  *Element, type=S4R
  *Nset, nset=ASSEMBLY_PART-2-1_SET-2
  *Elset, elset=ASSEMBLY_PART-2-1_SET-2
  *Node
  *Element, type=S4
  *Nset, nset=ASSEMBLY_PART-1-2_SET-2
  *Elset, elset=ASSEMBLY_PART-1-2_SET-2
  *Node
  *Element, type=S4
  *Nset, nset=ASSEMBLY_PART-1-3_SET-2
  *Elset, elset=ASSEMBLY_PART-1-3_SET-2
  *Node
  *Element, type=R3D4
  *Nset, nset=ASSEMBLY_PART-3-1_PART-3-1-REFPT_
  *Elset, elset=ASSEMBLY_PART-3-1_PART-3-1
  *Node
  *Element, type=CONN3D2
  *Nset, nset=ASSEMBLY_HINGE-1-1
  *Nset, nset=ASSEMBLY_HINGE-1-2
  *Nset, nset=ASSEMBLY_HINGE-2-1
  *Nset, nset=ASSEMBLY_HINGE-2-3
  *Nset, nset=ASSEMBLY_HINGE-3-2
  *Nset, nset=ASSEMBLY_HINGE-3-4
  *Nset, nset=ASSEMBLY_HINGE-4-3
  *Nset, nset=ASSEMBLY_HINGE-4-4
  *Nset, nset=ASSEMBLY_M_SET-32
  *Nset, nset=ASSEMBLY_M_SET-34
  *Nset, nset=ASSEMBLY_NODE_1_SPRING
  *Nset, nset=ASSEMBLY_NODE_2_SPRING
  *Nset, nset=ASSEMBLY_PLATE_1
  *Nset, nset=ASSEMBLY_RF_1_SPRING
  *Nset, nset=ASSEMBLY_RF_2_SPRING
  *Nset, nset=ASSEMBLY_SET-11
  *Nset, nset=ASSEMBLY_SET-15
  *Nset, nset=ASSEMBLY_SET-18
  *Nset, nset=ASSEMBLY_SET-19
  *Nset, nset=ASSEMBLY_SET-24
  *Nset, nset=ASSEMBLY_SET-25
  *Nset, nset=ASSEMBLY_SET-26
  *Nset, nset=ASSEMBLY_SET-30
  *Nset, nset=ASSEMBLY_SET-31
  *Nset, nset=ASSEMBLY_SET-4
  *Nset, nset=ASSEMBLY_SET-40
  *Nset, nset=ASSEMBLY_SET-41
  *Nset, nset=ASSEMBLY_SET-42
  *Nset, nset=ASSEMBLY_S_SET-32
  *Nset, nset=ASSEMBLY_S_SET-34
  *Nset, nset=ASSEMBLY_VERTEX
  *Nset, nset=ASSEMBLY_WIRE-1-SET-2
  *Elset, elset=ASSEMBLY_HINGE-1-1
  *Elset, elset=ASSEMBLY_HINGE-1-2
  *Elset, elset=ASSEMBLY_HINGE-2-1
  *Elset, elset=ASSEMBLY_HINGE-2-3
  *Elset, elset=ASSEMBLY_HINGE-3-2
  *Elset, elset=ASSEMBLY_HINGE-3-4
  *Elset, elset=ASSEMBLY_HINGE-4-3
  *Elset, elset=ASSEMBLY_HINGE-4-4
  *Elset, elset=ASSEMBLY_PLATE_1
  *Elset, elset=ASSEMBLY_SET-11
  *Elset, elset=ASSEMBLY_SET-15
  *Elset, elset=ASSEMBLY_SET-18
  *Elset, elset=ASSEMBLY_SET-19
  *Elset, elset=ASSEMBLY_SET-24
  *Elset, elset=ASSEMBLY_SET-25
  *Elset, elset=ASSEMBLY_SET-26
  *Elset, elset=ASSEMBLY_SET-4
  *Elset, elset=ASSEMBLY_SET-41
  *Elset, elset=ASSEMBLY_SET-42
  *Elset, elset=ASSEMBLY_S_SET-32
  *Elset, elset=ASSEMBLY_S_SET-34
  *Elset, elset=ASSEMBLY_WIRE-1-SET-2
  *amplitude, name=AMP-1, definition=SMOOTHSTEP
  *material, name=PAPER_MATERIAL
  *density
  *elastic
  *connectorsection, elset=ASSEMBLY_WIRE-1-SET-2, behavior=CONNSECT-2
  *connectorbehavior, name=CONNSECT-2
  *connectorconstitutivereference
  *connectorelasticity, component=1
  *orientation, name="ASSEMBLY_Datum csys-2"
  *shellsection, elset=ASSEMBLY_PART-1-1_SET-2, material=PAPER_MATERIAL
  *shellsection, elset=ASSEMBLY_PART-2-1_SET-2, material=PAPER_MATERIAL
  *shellsection, elset=ASSEMBLY_PART-1-2_SET-2, material=PAPER_MATERIAL
  *shellsection, elset=ASSEMBLY_PART-1-3_SET-2, material=PAPER_MATERIAL
  *shellsection, elset=ASSEMBLY_PART-1-1_SET-2, material=PAPER_MATERIAL
  *shellsection, elset=ASSEMBLY_PART-2-1_SET-2, material=PAPER_MATERIAL
  *shellsection, elset=ASSEMBLY_PART-1-2_SET-2, material=PAPER_MATERIAL
  *shellsection, elset=ASSEMBLY_PART-1-3_SET-2, material=PAPER_MATERIAL
  *rigidbody, refnode=ASSEMBLY_PART-3-1_PART-3-1-REFPT_, elset=ASSEMBLY_PART-3-1_PART-3-1
  *tie, name=ASSEMBLY_HINGE1, norotation, adjust=YES
  *tie, name=ASSEMBLY_HINGE2, norotation, adjust=YES
  *tie, name=ASSEMBLY_HINGE3, norotation, adjust=YES
  *tie, name=ASSEMBLY_HINGE4, norotation, adjust=YES
  *surface, type=NODE, name=ASSEMBLY_HINGE-1-1_CNS_
  *surface, type=NODE, name=ASSEMBLY_HINGE-1-2_CNS_
  *surface, type=NODE, name=ASSEMBLY_HINGE-2-1_CNS_
  *surface, type=NODE, name=ASSEMBLY_HINGE-2-3_CNS_
  *surface, type=NODE, name=ASSEMBLY_HINGE-3-2_CNS_
  *surface, type=NODE, name=ASSEMBLY_HINGE-3-4_CNS_
  *surface, type=NODE, name=ASSEMBLY_HINGE-4-3_CNS_
  *surface, type=NODE, name=ASSEMBLY_HINGE-4-4_CNS_
  *rigidbody, refnode=ASSEMBLY_PART-3-1_PART-3-1-REFPT_, elset=ASSEMBLY_PART-3-1_PART-3-1
  *rigidbody, refnode=ASSEMBLY_PART-3-1_PART-3-1-REFPT_, elset=ASSEMBLY_PART-3-1_PART-3-1
  *rigidbody, refnode=ASSEMBLY_PART-3-1_PART-3-1-REFPT_, elset=ASSEMBLY_PART-3-1_PART-3-1
  *tie, name=ASSEMBLY_HINGE1, norotation, adjust=YES
  *tie, name=ASSEMBLY_HINGE2, norotation, adjust=YES
  *tie, name=ASSEMBLY_HINGE3, norotation, adjust=YES
  *tie, name=ASSEMBLY_HINGE4, norotation, adjust=YES
  *surface, type=NODE, name=ASSEMBLY_HINGE-1-1_CNS_
  *surface, type=NODE, name=ASSEMBLY_HINGE-1-2_CNS_
  *surface, type=NODE, name=ASSEMBLY_HINGE-2-1_CNS_
  *surface, type=NODE, name=ASSEMBLY_HINGE-2-3_CNS_
  *surface, type=NODE, name=ASSEMBLY_HINGE-3-2_CNS_
  *surface, type=NODE, name=ASSEMBLY_HINGE-3-4_CNS_
  *surface, type=NODE, name=ASSEMBLY_HINGE-4-3_CNS_
  *surface, type=NODE, name=ASSEMBLY_HINGE-4-4_CNS_
  *surface, type=NODE, name=ASSEMBLY_HINGE-1-1_CNS_
  *surface, type=NODE, name=ASSEMBLY_HINGE-1-2_CNS_
  *surface, type=NODE, name=ASSEMBLY_HINGE-2-1_CNS_
  *surface, type=NODE, name=ASSEMBLY_HINGE-2-3_CNS_
  *surface, type=NODE, name=ASSEMBLY_HINGE-3-2_CNS_
  *surface, type=NODE, name=ASSEMBLY_HINGE-3-4_CNS_
  *surface, type=NODE, name=ASSEMBLY_HINGE-4-3_CNS_
  *surface, type=NODE, name=ASSEMBLY_HINGE-4-4_CNS_
  *surfaceinteraction, name=INTPROP-1
  *contact
  *contactinclusions, allexterior
  *contactpropertyassignment

 ***NOTE: THE ROTATIONAL DEGREES OF FREEDOM OF THE NODES THAT CONSTITUTE THE 
          SECONDARY SURFACE WILL NOT BE CONSTRAINED BETWEEN THE SECONDARY AND 
          MAIN PAIR (General_Contact_Faces, General_Contact_Faces).

 ***NOTE: THE  ROTATIONAL DEGREES OF FREEDOM OF THE NODES THAT CONSTITUTE THE 
          MAIN SURFACE WILL NOT BE CONSTRAINED BETWEEN THE SECONDARY AND MAIN 
          PAIR (General_Contact_Faces, General_Contact_Faces).

 ***WARNING: The general contact domain for modeling contact interactions in 
             Abaqus/Standard has double-sided facets. Initial contact 
             adjustments for resolving gaps and  overclosures when a surface 
             with double-sided facets is paired with any surface having 
             double-sided facets may be incorrect. Similarly, adjustments for 
             double-sided surfaces crossing each other may be incorrect and no 
             additional warnings or error messages will be issued. In all these 
             cases, we recommend using single-sided surfaces under *CONTACT 
             INITIALIZATION ASSIGNMENT to  handle initial adjustments more 
             precisely and avoid  possible convergence problems.

 ***NOTE: THE ROTATIONAL DEGREES OF FREEDOM OF THE NODES THAT CONSTITUTE THE 
          SECONDARY SURFACE WILL NOT BE CONSTRAINED BETWEEN THE SECONDARY AND 
          MAIN PAIR (General_Contact_Faces, General_Contact_Faces).

 ***NOTE: THE  ROTATIONAL DEGREES OF FREEDOM OF THE NODES THAT CONSTITUTE THE 
          MAIN SURFACE WILL NOT BE CONSTRAINED BETWEEN THE SECONDARY AND MAIN 
          PAIR (General_Contact_Faces, General_Contact_Faces).
  *tie, name=ASSEMBLY_HINGE1, norotation, adjust=YES
  *tie, name=ASSEMBLY_HINGE2, norotation, adjust=YES
  *tie, name=ASSEMBLY_HINGE3, norotation, adjust=YES
  *tie, name=ASSEMBLY_HINGE4, norotation, adjust=YES
  *rigidbody, refnode=ASSEMBLY_PART-3-1_PART-3-1-REFPT_, elset=ASSEMBLY_PART-3-1_PART-3-1
  *tie, name=ASSEMBLY_HINGE1, norotation, adjust=YES
  *tie, name=ASSEMBLY_HINGE2, norotation, adjust=YES
  *tie, name=ASSEMBLY_HINGE3, norotation, adjust=YES
  *tie, name=ASSEMBLY_HINGE4, norotation, adjust=YES
  *surfaceinteraction, name=INTPROP-1
  *friction
  *surfaceinteraction, name=INTPROP-1
  *connectorsection, elset=ASSEMBLY_WIRE-1-SET-2, behavior=CONNSECT-2
  *rigidbody, refnode=ASSEMBLY_PART-3-1_PART-3-1-REFPT_, elset=ASSEMBLY_PART-3-1_PART-3-1
  *rigidbody, refnode=ASSEMBLY_PART-3-1_PART-3-1-REFPT_, elset=ASSEMBLY_PART-3-1_PART-3-1
  *boundary
  *boundary
  *boundary, op=NEW
  *boundary, op=NEW
  *boundary
  *boundary
  *tie, name=ASSEMBLY_HINGE1, norotation, adjust=YES

 ***WARNING: SECONDARY SURFACE ASSEMBLY_HINGE-1-2_CNS_ IS A NODE-BASED SURFACE 
             USED WITH SURFACE TO SURFACE APPROACH.  IN ORDER TO OBTAIN 
             IMPROVED STRESS ACCURACY WITH THIS APPROACH, AN ELEMENT-BASED 
             SURFACE SHOULD BE USED INSTEAD.

 ***WARNING: FOR *TIE PAIR (ASSEMBLY_HINGE-1-2_CNS_-ASSEMBLY_HINGE-1-1_CNS_), 
             ADJUSTED NODES WITH VERY SMALL ADJUSTMENTS WERE NOT PRINTED. 
             SPECIFY *PREPRINT,MODEL=YES FOR COMPLETE PRINTOUT.
  *tie, name=ASSEMBLY_HINGE2, norotation, adjust=YES

 ***WARNING: SECONDARY SURFACE ASSEMBLY_HINGE-2-3_CNS_ IS A NODE-BASED SURFACE 
             USED WITH SURFACE TO SURFACE APPROACH.  IN ORDER TO OBTAIN 
             IMPROVED STRESS ACCURACY WITH THIS APPROACH, AN ELEMENT-BASED 
             SURFACE SHOULD BE USED INSTEAD.

 ***WARNING: FOR *TIE PAIR (ASSEMBLY_HINGE-2-3_CNS_-ASSEMBLY_HINGE-2-1_CNS_), 
             ADJUSTED NODES WITH VERY SMALL ADJUSTMENTS WERE NOT PRINTED. 
             SPECIFY *PREPRINT,MODEL=YES FOR COMPLETE PRINTOUT.
  *tie, name=ASSEMBLY_HINGE3, norotation, adjust=YES

 ***WARNING: SECONDARY SURFACE ASSEMBLY_HINGE-3-4_CNS_ IS A NODE-BASED SURFACE 
             USED WITH SURFACE TO SURFACE APPROACH.  IN ORDER TO OBTAIN 
             IMPROVED STRESS ACCURACY WITH THIS APPROACH, AN ELEMENT-BASED 
             SURFACE SHOULD BE USED INSTEAD.

 ***WARNING: FOR *TIE PAIR (ASSEMBLY_HINGE-3-4_CNS_-ASSEMBLY_HINGE-3-2_CNS_), 
             ADJUSTED NODES WITH VERY SMALL ADJUSTMENTS WERE NOT PRINTED. 
             SPECIFY *PREPRINT,MODEL=YES FOR COMPLETE PRINTOUT.
  *tie, name=ASSEMBLY_HINGE4, norotation, adjust=YES

 ***WARNING: SECONDARY SURFACE ASSEMBLY_HINGE-4-4_CNS_ IS A NODE-BASED SURFACE 
             USED WITH SURFACE TO SURFACE APPROACH.  IN ORDER TO OBTAIN 
             IMPROVED STRESS ACCURACY WITH THIS APPROACH, AN ELEMENT-BASED 
             SURFACE SHOULD BE USED INSTEAD.

 ***WARNING: FOR *TIE PAIR (ASSEMBLY_HINGE-4-4_CNS_-ASSEMBLY_HINGE-4-3_CNS_), 
             ADJUSTED NODES WITH VERY SMALL ADJUSTMENTS WERE NOT PRINTED. 
             SPECIFY *PREPRINT,MODEL=YES FOR COMPLETE PRINTOUT.

 ***NOTE: THE ROTATIONAL DEGREES OF FREEDOM OF THE NODES THAT CONSTITUTE THE 
          SECONDARY SURFACE WILL NOT BE CONSTRAINED BETWEEN THE SECONDARY AND 
          MAIN PAIR (General_Contact_Faces, General_Contact_Faces).

 ***NOTE: THE  ROTATIONAL DEGREES OF FREEDOM OF THE NODES THAT CONSTITUTE THE 
          MAIN SURFACE WILL NOT BE CONSTRAINED BETWEEN THE SECONDARY AND MAIN 
          PAIR (General_Contact_Faces, General_Contact_Faces).
 
   TRACKING LOAD BALANCE
       General_Contact_Faces / General_Contact_Faces
      THREAD 1:  248 FACETS
      THREAD 2:  252 FACETS
 

 ***WARNING: ADJACENT SECONDARY NODES (1 INSTANCE PART-1-1,12 INSTANCE 
             PART-1-1) ARE ON THE OPPOSITE SIDES OF DOUBLE-SIDED MAIN SURFACE.

 ***WARNING: ADJACENT SECONDARY NODES (22 INSTANCE PART-1-1,11 INSTANCE 
             PART-1-1) ARE ON THE OPPOSITE SIDES OF DOUBLE-SIDED MAIN SURFACE.

 ***WARNING: ADJACENT SECONDARY NODES (12 INSTANCE PART-1-1,23 INSTANCE 
             PART-1-1) ARE ON THE OPPOSITE SIDES OF DOUBLE-SIDED MAIN SURFACE.

 ***WARNING: ADJACENT SECONDARY NODES (33 INSTANCE PART-1-1,22 INSTANCE 
             PART-1-1) ARE ON THE OPPOSITE SIDES OF DOUBLE-SIDED MAIN SURFACE.

 ***WARNING: ADJACENT SECONDARY NODES (23 INSTANCE PART-1-1,34 INSTANCE 
             PART-1-1) ARE ON THE OPPOSITE SIDES OF DOUBLE-SIDED MAIN SURFACE.

 ***WARNING: ADJACENT SECONDARY NODES (44 INSTANCE PART-1-1,33 INSTANCE 
             PART-1-1) ARE ON THE OPPOSITE SIDES OF DOUBLE-SIDED MAIN SURFACE.

 ***WARNING: ADJACENT SECONDARY NODES (34 INSTANCE PART-1-1,45 INSTANCE 
             PART-1-1) ARE ON THE OPPOSITE SIDES OF DOUBLE-SIDED MAIN SURFACE.

 ***WARNING: ADJACENT SECONDARY NODES (55 INSTANCE PART-1-1,44 INSTANCE 
             PART-1-1) ARE ON THE OPPOSITE SIDES OF DOUBLE-SIDED MAIN SURFACE.
  *tie, name=ASSEMBLY_HINGE1, norotation, adjust=YES
  *tie, name=ASSEMBLY_HINGE2, norotation, adjust=YES
  *tie, name=ASSEMBLY_HINGE3, norotation, adjust=YES
  *tie, name=ASSEMBLY_HINGE4, norotation, adjust=YES
  *tie, name=ASSEMBLY_HINGE1, norotation, adjust=YES
  *tie, name=ASSEMBLY_HINGE2, norotation, adjust=YES
  *tie, name=ASSEMBLY_HINGE3, norotation, adjust=YES
  *tie, name=ASSEMBLY_HINGE4, norotation, adjust=YES
  *equation
  *equation
  *equation
  *equation
  *equation
  *equation
  *surfaceinteraction, name=INTPROP-1

 ***NOTE: THE ROTATIONAL DEGREES OF FREEDOM OF THE NODES THAT CONSTITUTE THE 
          SECONDARY SURFACE WILL NOT BE CONSTRAINED BETWEEN THE SECONDARY AND 
          MAIN PAIR (General_Contact_Faces, General_Contact_Faces).

 ***NOTE: THE  ROTATIONAL DEGREES OF FREEDOM OF THE NODES THAT CONSTITUTE THE 
          MAIN SURFACE WILL NOT BE CONSTRAINED BETWEEN THE SECONDARY AND MAIN 
          PAIR (General_Contact_Faces, General_Contact_Faces).
  *rigidbody, refnode=ASSEMBLY_PART-3-1_PART-3-1-REFPT_, elset=ASSEMBLY_PART-3-1_PART-3-1
  *surface, type=NODE, name=ASSEMBLY_HINGE-1-1_CNS_
  *surface, type=NODE, name=ASSEMBLY_HINGE-1-2_CNS_
  *surface, type=NODE, name=ASSEMBLY_HINGE-2-1_CNS_
  *surface, type=NODE, name=ASSEMBLY_HINGE-2-3_CNS_
  *surface, type=NODE, name=ASSEMBLY_HINGE-3-2_CNS_
  *surface, type=NODE, name=ASSEMBLY_HINGE-3-4_CNS_
  *surface, type=NODE, name=ASSEMBLY_HINGE-4-3_CNS_
  *surface, type=NODE, name=ASSEMBLY_HINGE-4-4_CNS_
  *tie, name=ASSEMBLY_HINGE1, norotation, adjust=YES
  *tie, name=ASSEMBLY_HINGE2, norotation, adjust=YES
  *tie, name=ASSEMBLY_HINGE3, norotation, adjust=YES
  *tie, name=ASSEMBLY_HINGE4, norotation, adjust=YES
  *connectorsection, elset=ASSEMBLY_WIRE-1-SET-2, behavior=CONNSECT-2
  *output, field, variable=PRESELECT
  *output, history, variable=PRESELECT
  *output, field, variable=PRESELECT, frequency=1
  *output, history, frequency=1
  *output, history, variable=PRESELECT, frequency=1
  *output, field, variable=PRESELECT
  *output, history, variable=PRESELECT
  *output, field, variable=PRESELECT, frequency=1
  *output, history, frequency=1
  *output, history, variable=PRESELECT, frequency=1
  *output, field, variable=PRESELECT
  *output, history, variable=PRESELECT
  *output, field, variable=PRESELECT, frequency=1
  *output, history, frequency=1
  *output, history, variable=PRESELECT, frequency=1
 
      ELEMENT CONSTRUCTION EXECUTED IN PARALLEL USING 2 THREADS
 
      ELEMENT GEOMETRY CALCULATIONS EXECUTED IN PARALLEL USING 2 THREADS
  *Step, name=Step-1, nlgeom=NO, inc=10000
  *output, field, variable=PRESELECT
  *output, history, variable=PRESELECT
  *Step, name=Step-2, nlgeom=NO, inc=100000
  *output, field, variable=PRESELECT, frequency=1
  *output, history, frequency=1
  *output, history, variable=PRESELECT, frequency=1
  *Step, name=Step-1, nlgeom=NO, inc=10000
  *Step, name=Step-2, nlgeom=NO, inc=100000
  *Step, name=Step-1, nlgeom=NO, inc=10000
  *dynamic
  *boundary
  *dload

 ***WARNING: ELEMENT 1 (ASSEMBLY) IS A CONNECTOR ELEMENT AND CANNOT BE 
             ASSOCIATED WITH LOAD TYPE GRAV. THIS WILL BE IGNORED

 ***WARNING: RIGID ELEMENTS WILL NOT BE CONSIDERED IN THE APPLICATION OF  GRAV 
             LOADS.

 ***NOTE: ALL VALID ELEMENTS HAVE BEEN COLLECTED IN ELEMENT SET 
          _Whole_Model_GRAV_Elset FOR APPLICATION OF LOAD TYPE GRAV.
  *output, field, variable=PRESELECT
  *output, history, variable=PRESELECT
  *endstep
  *Step, name=Step-2, nlgeom=NO, inc=100000
  *dynamic
  *boundary, op=NEW
  *boundary, op=NEW
  *output, field, variable=PRESELECT, frequency=1
  *output, history, frequency=1
  *nodeoutput, nset=ASSEMBLY_VERTEX
  *output, history, variable=PRESELECT, frequency=1
  *endstep
  *boundary
  *Step, name=Step-1, nlgeom=NO, inc=10000
  *dynamic
  *boundary
  *endstep

 ***WARNING: OVERCONSTRAINT CHECKS: NODE 1 INSTANCE PART-3-1 IS A DEPENDENT 
             NODE IN A *RIGID BODY OPTION AND HAS A SPECIFIED BOUNDARY 
             CONDITION. THE BOUNDARY CONDITIONS AT THIS NODE WILL BE 
             TRANSFERRED TO THE RIGID BODY REFERENCE  NODE 122 INSTANCE 
             PART-3-1. THE BOUNDARY CONDITIONS AT NODE 1 INSTANCE PART-3-1 WILL 
             BE IGNORED.
  *Step, name=Step-2, nlgeom=NO, inc=100000
  *dynamic
  *boundary, op=NEW
  *boundary, op=NEW
  *endstep

 ***WARNING: OVERCONSTRAINT CHECKS: NODE 1 INSTANCE PART-3-1 IS A DEPENDENT 
             NODE IN A *RIGID BODY OPTION AND HAS A SPECIFIED BOUNDARY 
             CONDITION. THE BOUNDARY CONDITIONS AT THIS NODE WILL BE 
             TRANSFERRED TO THE RIGID BODY REFERENCE  NODE 122 INSTANCE 
             PART-3-1. THE BOUNDARY CONDITIONS AT NODE 1 INSTANCE PART-3-1 WILL 
             BE IGNORED.

 ***WARNING: 2 nodes associated with rigid bodies have boundary conditions 
             prescribed at nodes other than the reference node. These boundary 
             conditions will be transferred to the associated rigid body 
             reference node.The reference nodes and the dependent nodes have 
             been identified in node set WarnNodeOverconBoundRB.

 ***WARNING: DEGREE OF FREEDOM 1 HAS BEEN ELIMINATED AT NODE 1 INSTANCE 
             PART-3-1 BOUNDARY CONDITION TYPE ENCASTRE MAY NOT BE APPLIED AT 
             THIS NODE

 ***WARNING: DEGREE OF FREEDOM 2 HAS BEEN ELIMINATED AT NODE 1 INSTANCE 
             PART-3-1 BOUNDARY CONDITION TYPE ENCASTRE MAY NOT BE APPLIED AT 
             THIS NODE

 ***WARNING: DEGREE OF FREEDOM 3 HAS BEEN ELIMINATED AT NODE 1 INSTANCE 
             PART-3-1 BOUNDARY CONDITION TYPE ENCASTRE MAY NOT BE APPLIED AT 
             THIS NODE

 ***WARNING: DEGREE OF FREEDOM 1 HAS BEEN ELIMINATED AT NODE 2 INSTANCE 
             PART-3-1 BOUNDARY CONDITION TYPE ENCASTRE MAY NOT BE APPLIED AT 
             THIS NODE

 ***WARNING: DEGREE OF FREEDOM 2 HAS BEEN ELIMINATED AT NODE 2 INSTANCE 
             PART-3-1 BOUNDARY CONDITION TYPE ENCASTRE MAY NOT BE APPLIED AT 
             THIS NODE

 ***WARNING: DEGREE OF FREEDOM 3 HAS BEEN ELIMINATED AT NODE 2 INSTANCE 
             PART-3-1 BOUNDARY CONDITION TYPE ENCASTRE MAY NOT BE APPLIED AT 
             THIS NODE

 ***WARNING: DEGREE OF FREEDOM 1 HAS BEEN ELIMINATED AT NODE 3 INSTANCE 
             PART-3-1 BOUNDARY CONDITION TYPE ENCASTRE MAY NOT BE APPLIED AT 
             THIS NODE

 ***WARNING: DEGREE OF FREEDOM 2 HAS BEEN ELIMINATED AT NODE 3 INSTANCE 
             PART-3-1 BOUNDARY CONDITION TYPE ENCASTRE MAY NOT BE APPLIED AT 
             THIS NODE

 ***WARNING: DEGREE OF FREEDOM 3 HAS BEEN ELIMINATED AT NODE 3 INSTANCE 
             PART-3-1 BOUNDARY CONDITION TYPE ENCASTRE MAY NOT BE APPLIED AT 
             THIS NODE

 ***WARNING: DEGREE OF FREEDOM 1 HAS BEEN ELIMINATED AT NODE 4 INSTANCE 
             PART-3-1 BOUNDARY CONDITION TYPE ENCASTRE MAY NOT BE APPLIED AT 
             THIS NODE

 ***WARNING: DEGREE OF FREEDOM 2 HAS BEEN ELIMINATED AT NODE 4 INSTANCE 
             PART-3-1 BOUNDARY CONDITION TYPE ENCASTRE MAY NOT BE APPLIED AT 
             THIS NODE

 ***WARNING: DEGREE OF FREEDOM 3 HAS BEEN ELIMINATED AT NODE 4 INSTANCE 
             PART-3-1 BOUNDARY CONDITION TYPE ENCASTRE MAY NOT BE APPLIED AT 
             THIS NODE

 ***WARNING: DEGREE OF FREEDOM 1 HAS BEEN ELIMINATED AT NODE 5 INSTANCE 
             PART-3-1 BOUNDARY CONDITION TYPE ENCASTRE MAY NOT BE APPLIED AT 
             THIS NODE

 ***WARNING: DEGREE OF FREEDOM 2 HAS BEEN ELIMINATED AT NODE 5 INSTANCE 
             PART-3-1 BOUNDARY CONDITION TYPE ENCASTRE MAY NOT BE APPLIED AT 
             THIS NODE

 ***WARNING: DEGREE OF FREEDOM 3 HAS BEEN ELIMINATED AT NODE 5 INSTANCE 
             PART-3-1 BOUNDARY CONDITION TYPE ENCASTRE MAY NOT BE APPLIED AT 
             THIS NODE

 ***WARNING: DEGREE OF FREEDOM 1 HAS BEEN ELIMINATED AT NODE 6 INSTANCE 
             PART-3-1 BOUNDARY CONDITION TYPE ENCASTRE MAY NOT BE APPLIED AT 
             THIS NODE

 ***WARNING: DEGREE OF FREEDOM 2 HAS BEEN ELIMINATED AT NODE 6 INSTANCE 
             PART-3-1 BOUNDARY CONDITION TYPE ENCASTRE MAY NOT BE APPLIED AT 
             THIS NODE

 ***WARNING: DEGREE OF FREEDOM 3 HAS BEEN ELIMINATED AT NODE 6 INSTANCE 
             PART-3-1 BOUNDARY CONDITION TYPE ENCASTRE MAY NOT BE APPLIED AT 
             THIS NODE

 ***WARNING: DEGREE OF FREEDOM 1 HAS BEEN ELIMINATED AT NODE 7 INSTANCE 
             PART-3-1 BOUNDARY CONDITION TYPE ENCASTRE MAY NOT BE APPLIED AT 
             THIS NODE

 ***WARNING: DEGREE OF FREEDOM 2 HAS BEEN ELIMINATED AT NODE 7 INSTANCE 
             PART-3-1 BOUNDARY CONDITION TYPE ENCASTRE MAY NOT BE APPLIED AT 
             THIS NODE

 ***WARNING: DEGREE OF FREEDOM 3 HAS BEEN ELIMINATED AT NODE 7 INSTANCE 
             PART-3-1 BOUNDARY CONDITION TYPE ENCASTRE MAY NOT BE APPLIED AT 
             THIS NODE

 ***WARNING: DEGREE OF FREEDOM 1 HAS BEEN ELIMINATED AT NODE 8 INSTANCE 
             PART-3-1 BOUNDARY CONDITION TYPE ENCASTRE MAY NOT BE APPLIED AT 
             THIS NODE

 ***WARNING: DEGREE OF FREEDOM 2 HAS BEEN ELIMINATED AT NODE 8 INSTANCE 
             PART-3-1 BOUNDARY CONDITION TYPE ENCASTRE MAY NOT BE APPLIED AT 
             THIS NODE

 ***WARNING: DEGREE OF FREEDOM 3 HAS BEEN ELIMINATED AT NODE 8 INSTANCE 
             PART-3-1 BOUNDARY CONDITION TYPE ENCASTRE MAY NOT BE APPLIED AT 
             THIS NODE

 ***WARNING: DEGREE OF FREEDOM 1 HAS BEEN ELIMINATED AT NODE 9 INSTANCE 
             PART-3-1 BOUNDARY CONDITION TYPE ENCASTRE MAY NOT BE APPLIED AT 
             THIS NODE

 ***WARNING: DEGREE OF FREEDOM 2 HAS BEEN ELIMINATED AT NODE 9 INSTANCE 
             PART-3-1 BOUNDARY CONDITION TYPE ENCASTRE MAY NOT BE APPLIED AT 
             THIS NODE

 ***WARNING: DEGREE OF FREEDOM 3 HAS BEEN ELIMINATED AT NODE 9 INSTANCE 
             PART-3-1 BOUNDARY CONDITION TYPE ENCASTRE MAY NOT BE APPLIED AT 
             THIS NODE

 ***WARNING: DEGREE OF FREEDOM 1 HAS BEEN ELIMINATED AT NODE 10 INSTANCE 
             PART-3-1 BOUNDARY CONDITION TYPE ENCASTRE MAY NOT BE APPLIED AT 
             THIS NODE

 ***WARNING: DEGREE OF FREEDOM 2 HAS BEEN ELIMINATED AT NODE 10 INSTANCE 
             PART-3-1 BOUNDARY CONDITION TYPE ENCASTRE MAY NOT BE APPLIED AT 
             THIS NODE

 ***WARNING: DEGREE OF FREEDOM 3 HAS BEEN ELIMINATED AT NODE 10 INSTANCE 
             PART-3-1 BOUNDARY CONDITION TYPE ENCASTRE MAY NOT BE APPLIED AT 
             THIS NODE

 ***WARNING: DEGREE OF FREEDOM 1 HAS BEEN ELIMINATED AT NODE 11 INSTANCE 
             PART-3-1 BOUNDARY CONDITION TYPE ENCASTRE MAY NOT BE APPLIED AT 
             THIS NODE

 ***WARNING: DEGREE OF FREEDOM 2 HAS BEEN ELIMINATED AT NODE 11 INSTANCE 
             PART-3-1 BOUNDARY CONDITION TYPE ENCASTRE MAY NOT BE APPLIED AT 
             THIS NODE

 ***WARNING: DEGREE OF FREEDOM 3 HAS BEEN ELIMINATED AT NODE 11 INSTANCE 
             PART-3-1 BOUNDARY CONDITION TYPE ENCASTRE MAY NOT BE APPLIED AT 
             THIS NODE

 ***WARNING: DEGREE OF FREEDOM 1 HAS BEEN ELIMINATED AT NODE 12 INSTANCE 
             PART-3-1 BOUNDARY CONDITION TYPE ENCASTRE MAY NOT BE APPLIED AT 
             THIS NODE

 ***WARNING: DEGREE OF FREEDOM 2 HAS BEEN ELIMINATED AT NODE 12 INSTANCE 
             PART-3-1 BOUNDARY CONDITION TYPE ENCASTRE MAY NOT BE APPLIED AT 
             THIS NODE

 ***WARNING: DEGREE OF FREEDOM 3 HAS BEEN ELIMINATED AT NODE 12 INSTANCE 
             PART-3-1 BOUNDARY CONDITION TYPE ENCASTRE MAY NOT BE APPLIED AT 
             THIS NODE

 ***WARNING: DEGREE OF FREEDOM 1 HAS BEEN ELIMINATED AT NODE 13 INSTANCE 
             PART-3-1 BOUNDARY CONDITION TYPE ENCASTRE MAY NOT BE APPLIED AT 
             THIS NODE

 ***WARNING: DEGREE OF FREEDOM 2 HAS BEEN ELIMINATED AT NODE 13 INSTANCE 
             PART-3-1 BOUNDARY CONDITION TYPE ENCASTRE MAY NOT BE APPLIED AT 
             THIS NODE

 ***WARNING: DEGREE OF FREEDOM 3 HAS BEEN ELIMINATED AT NODE 13 INSTANCE 
             PART-3-1 BOUNDARY CONDITION TYPE ENCASTRE MAY NOT BE APPLIED AT 
             THIS NODE

 ***WARNING: DEGREE OF FREEDOM 1 HAS BEEN ELIMINATED AT NODE 14 INSTANCE 
             PART-3-1 BOUNDARY CONDITION TYPE ENCASTRE MAY NOT BE APPLIED AT 
             THIS NODE

 ***WARNING: DEGREE OF FREEDOM 2 HAS BEEN ELIMINATED AT NODE 14 INSTANCE 
             PART-3-1 BOUNDARY CONDITION TYPE ENCASTRE MAY NOT BE APPLIED AT 
             THIS NODE

 ***WARNING: DEGREE OF FREEDOM 3 HAS BEEN ELIMINATED AT NODE 14 INSTANCE 
             PART-3-1 BOUNDARY CONDITION TYPE ENCASTRE MAY NOT BE APPLIED AT 
             THIS NODE

 ***WARNING: DEGREE OF FREEDOM 1 HAS BEEN ELIMINATED AT NODE 15 INSTANCE 
             PART-3-1 BOUNDARY CONDITION TYPE ENCASTRE MAY NOT BE APPLIED AT 
             THIS NODE

 ***WARNING: DEGREE OF FREEDOM 2 HAS BEEN ELIMINATED AT NODE 15 INSTANCE 
             PART-3-1 BOUNDARY CONDITION TYPE ENCASTRE MAY NOT BE APPLIED AT 
             THIS NODE

 ***WARNING: DEGREE OF FREEDOM 3 HAS BEEN ELIMINATED AT NODE 15 INSTANCE 
             PART-3-1 BOUNDARY CONDITION TYPE ENCASTRE MAY NOT BE APPLIED AT 
             THIS NODE

 ***WARNING: DEGREE OF FREEDOM 1 HAS BEEN ELIMINATED AT NODE 16 INSTANCE 
             PART-3-1 BOUNDARY CONDITION TYPE ENCASTRE MAY NOT BE APPLIED AT 
             THIS NODE

 ***WARNING: DEGREE OF FREEDOM 2 HAS BEEN ELIMINATED AT NODE 16 INSTANCE 
             PART-3-1 BOUNDARY CONDITION TYPE ENCASTRE MAY NOT BE APPLIED AT 
             THIS NODE

 ***WARNING: DEGREE OF FREEDOM 3 HAS BEEN ELIMINATED AT NODE 16 INSTANCE 
             PART-3-1 BOUNDARY CONDITION TYPE ENCASTRE MAY NOT BE APPLIED AT 
             THIS NODE

 ***WARNING: DEGREE OF FREEDOM 1 HAS BEEN ELIMINATED AT NODE 17 INSTANCE 
             PART-3-1 BOUNDARY CONDITION TYPE ENCASTRE MAY NOT BE APPLIED AT 
             THIS NODE

 ***WARNING: DEGREE OF FREEDOM 2 HAS BEEN ELIMINATED AT NODE 17 INSTANCE 
             PART-3-1 BOUNDARY CONDITION TYPE ENCASTRE MAY NOT BE APPLIED AT 
             THIS NODE

 ***WARNING: DEGREE OF FREEDOM 3 HAS BEEN ELIMINATED AT NODE 17 INSTANCE 
             PART-3-1 BOUNDARY CONDITION TYPE ENCASTRE MAY NOT BE APPLIED AT 
             THIS NODE

 ***WARNING: DEGREE OF FREEDOM 1 HAS BEEN ELIMINATED AT NODE 18 INSTANCE 
             PART-3-1 BOUNDARY CONDITION TYPE ENCASTRE MAY NOT BE APPLIED AT 
             THIS NODE

 ***WARNING: DEGREE OF FREEDOM 2 HAS BEEN ELIMINATED AT NODE 18 INSTANCE 
             PART-3-1 BOUNDARY CONDITION TYPE ENCASTRE MAY NOT BE APPLIED AT 
             THIS NODE

 ***WARNING: DEGREE OF FREEDOM 3 HAS BEEN ELIMINATED AT NODE 18 INSTANCE 
             PART-3-1 BOUNDARY CONDITION TYPE ENCASTRE MAY NOT BE APPLIED AT 
             THIS NODE

 ***WARNING: DEGREE OF FREEDOM 1 HAS BEEN ELIMINATED AT NODE 19 INSTANCE 
             PART-3-1 BOUNDARY CONDITION TYPE ENCASTRE MAY NOT BE APPLIED AT 
             THIS NODE

 ***WARNING: DEGREE OF FREEDOM 2 HAS BEEN ELIMINATED AT NODE 19 INSTANCE 
             PART-3-1 BOUNDARY CONDITION TYPE ENCASTRE MAY NOT BE APPLIED AT 
             THIS NODE

 ***WARNING: DEGREE OF FREEDOM 3 HAS BEEN ELIMINATED AT NODE 19 INSTANCE 
             PART-3-1 BOUNDARY CONDITION TYPE ENCASTRE MAY NOT BE APPLIED AT 
             THIS NODE

 ***WARNING: DEGREE OF FREEDOM 1 HAS BEEN ELIMINATED AT NODE 20 INSTANCE 
             PART-3-1 BOUNDARY CONDITION TYPE ENCASTRE MAY NOT BE APPLIED AT 
             THIS NODE

 ***WARNING: DEGREE OF FREEDOM 2 HAS BEEN ELIMINATED AT NODE 20 INSTANCE 
             PART-3-1 BOUNDARY CONDITION TYPE ENCASTRE MAY NOT BE APPLIED AT 
             THIS NODE

 ***WARNING: DEGREE OF FREEDOM 3 HAS BEEN ELIMINATED AT NODE 20 INSTANCE 
             PART-3-1 BOUNDARY CONDITION TYPE ENCASTRE MAY NOT BE APPLIED AT 
             THIS NODE

 ***WARNING: DEGREE OF FREEDOM 1 HAS BEEN ELIMINATED AT NODE 21 INSTANCE 
             PART-3-1 BOUNDARY CONDITION TYPE ENCASTRE MAY NOT BE APPLIED AT 
             THIS NODE

 ***WARNING: DEGREE OF FREEDOM 2 HAS BEEN ELIMINATED AT NODE 21 INSTANCE 
             PART-3-1 BOUNDARY CONDITION TYPE ENCASTRE MAY NOT BE APPLIED AT 
             THIS NODE

 ***WARNING: DEGREE OF FREEDOM 3 HAS BEEN ELIMINATED AT NODE 21 INSTANCE 
             PART-3-1 BOUNDARY CONDITION TYPE ENCASTRE MAY NOT BE APPLIED AT 
             THIS NODE

 ***WARNING: DEGREE OF FREEDOM 1 HAS BEEN ELIMINATED AT NODE 22 INSTANCE 
             PART-3-1 BOUNDARY CONDITION TYPE ENCASTRE MAY NOT BE APPLIED AT 
             THIS NODE

 ***WARNING: DEGREE OF FREEDOM 2 HAS BEEN ELIMINATED AT NODE 22 INSTANCE 
             PART-3-1 BOUNDARY CONDITION TYPE ENCASTRE MAY NOT BE APPLIED AT 
             THIS NODE

 ***WARNING: DEGREE OF FREEDOM 3 HAS BEEN ELIMINATED AT NODE 22 INSTANCE 
             PART-3-1 BOUNDARY CONDITION TYPE ENCASTRE MAY NOT BE APPLIED AT 
             THIS NODE

 ***WARNING: DEGREE OF FREEDOM 1 HAS BEEN ELIMINATED AT NODE 23 INSTANCE 
             PART-3-1 BOUNDARY CONDITION TYPE ENCASTRE MAY NOT BE APPLIED AT 
             THIS NODE

 ***WARNING: DEGREE OF FREEDOM 2 HAS BEEN ELIMINATED AT NODE 23 INSTANCE 
             PART-3-1 BOUNDARY CONDITION TYPE ENCASTRE MAY NOT BE APPLIED AT 
             THIS NODE

 ***WARNING: DEGREE OF FREEDOM 3 HAS BEEN ELIMINATED AT NODE 23 INSTANCE 
             PART-3-1 BOUNDARY CONDITION TYPE ENCASTRE MAY NOT BE APPLIED AT 
             THIS NODE

 ***WARNING: DEGREE OF FREEDOM 1 HAS BEEN ELIMINATED AT NODE 24 INSTANCE 
             PART-3-1 BOUNDARY CONDITION TYPE ENCASTRE MAY NOT BE APPLIED AT 
             THIS NODE

 ***WARNING: DEGREE OF FREEDOM 2 HAS BEEN ELIMINATED AT NODE 24 INSTANCE 
             PART-3-1 BOUNDARY CONDITION TYPE ENCASTRE MAY NOT BE APPLIED AT 
             THIS NODE

 ***WARNING: DEGREE OF FREEDOM 3 HAS BEEN ELIMINATED AT NODE 24 INSTANCE 
             PART-3-1 BOUNDARY CONDITION TYPE ENCASTRE MAY NOT BE APPLIED AT 
             THIS NODE

 ***WARNING: DEGREE OF FREEDOM 1 HAS BEEN ELIMINATED AT NODE 25 INSTANCE 
             PART-3-1 BOUNDARY CONDITION TYPE ENCASTRE MAY NOT BE APPLIED AT 
             THIS NODE

 ***WARNING: DEGREE OF FREEDOM 2 HAS BEEN ELIMINATED AT NODE 25 INSTANCE 
             PART-3-1 BOUNDARY CONDITION TYPE ENCASTRE MAY NOT BE APPLIED AT 
             THIS NODE

 ***WARNING: DEGREE OF FREEDOM 3 HAS BEEN ELIMINATED AT NODE 25 INSTANCE 
             PART-3-1 BOUNDARY CONDITION TYPE ENCASTRE MAY NOT BE APPLIED AT 
             THIS NODE

 ***WARNING: DEGREE OF FREEDOM 1 HAS BEEN ELIMINATED AT NODE 26 INSTANCE 
             PART-3-1 BOUNDARY CONDITION TYPE ENCASTRE MAY NOT BE APPLIED AT 
             THIS NODE

 ***WARNING: DEGREE OF FREEDOM 2 HAS BEEN ELIMINATED AT NODE 26 INSTANCE 
             PART-3-1 BOUNDARY CONDITION TYPE ENCASTRE MAY NOT BE APPLIED AT 
             THIS NODE

 ***WARNING: DEGREE OF FREEDOM 3 HAS BEEN ELIMINATED AT NODE 26 INSTANCE 
             PART-3-1 BOUNDARY CONDITION TYPE ENCASTRE MAY NOT BE APPLIED AT 
             THIS NODE

 ***WARNING: DEGREE OF FREEDOM 1 HAS BEEN ELIMINATED AT NODE 27 INSTANCE 
             PART-3-1 BOUNDARY CONDITION TYPE ENCASTRE MAY NOT BE APPLIED AT 
             THIS NODE

 ***WARNING: DEGREE OF FREEDOM 2 HAS BEEN ELIMINATED AT NODE 27 INSTANCE 
             PART-3-1 BOUNDARY CONDITION TYPE ENCASTRE MAY NOT BE APPLIED AT 
             THIS NODE

 ***WARNING: DEGREE OF FREEDOM 3 HAS BEEN ELIMINATED AT NODE 27 INSTANCE 
             PART-3-1 BOUNDARY CONDITION TYPE ENCASTRE MAY NOT BE APPLIED AT 
             THIS NODE

 ***WARNING: DEGREE OF FREEDOM 1 HAS BEEN ELIMINATED AT NODE 28 INSTANCE 
             PART-3-1 BOUNDARY CONDITION TYPE ENCASTRE MAY NOT BE APPLIED AT 
             THIS NODE

 ***WARNING: DEGREE OF FREEDOM 2 HAS BEEN ELIMINATED AT NODE 28 INSTANCE 
             PART-3-1 BOUNDARY CONDITION TYPE ENCASTRE MAY NOT BE APPLIED AT 
             THIS NODE

 ***WARNING: DEGREE OF FREEDOM 3 HAS BEEN ELIMINATED AT NODE 28 INSTANCE 
             PART-3-1 BOUNDARY CONDITION TYPE ENCASTRE MAY NOT BE APPLIED AT 
             THIS NODE

 ***WARNING: DEGREE OF FREEDOM 1 HAS BEEN ELIMINATED AT NODE 29 INSTANCE 
             PART-3-1 BOUNDARY CONDITION TYPE ENCASTRE MAY NOT BE APPLIED AT 
             THIS NODE

 ***WARNING: DEGREE OF FREEDOM 2 HAS BEEN ELIMINATED AT NODE 29 INSTANCE 
             PART-3-1 BOUNDARY CONDITION TYPE ENCASTRE MAY NOT BE APPLIED AT 
             THIS NODE

 ***WARNING: DEGREE OF FREEDOM 3 HAS BEEN ELIMINATED AT NODE 29 INSTANCE 
             PART-3-1 BOUNDARY CONDITION TYPE ENCASTRE MAY NOT BE APPLIED AT 
             THIS NODE

 ***WARNING: DEGREE OF FREEDOM 1 HAS BEEN ELIMINATED AT NODE 30 INSTANCE 
             PART-3-1 BOUNDARY CONDITION TYPE ENCASTRE MAY NOT BE APPLIED AT 
             THIS NODE

 ***WARNING: DEGREE OF FREEDOM 2 HAS BEEN ELIMINATED AT NODE 30 INSTANCE 
             PART-3-1 BOUNDARY CONDITION TYPE ENCASTRE MAY NOT BE APPLIED AT 
             THIS NODE

 ***WARNING: DEGREE OF FREEDOM 3 HAS BEEN ELIMINATED AT NODE 30 INSTANCE 
             PART-3-1 BOUNDARY CONDITION TYPE ENCASTRE MAY NOT BE APPLIED AT 
             THIS NODE

 ***WARNING: DEGREE OF FREEDOM 1 HAS BEEN ELIMINATED AT NODE 31 INSTANCE 
             PART-3-1 BOUNDARY CONDITION TYPE ENCASTRE MAY NOT BE APPLIED AT 
             THIS NODE

 ***WARNING: DEGREE OF FREEDOM 2 HAS BEEN ELIMINATED AT NODE 31 INSTANCE 
             PART-3-1 BOUNDARY CONDITION TYPE ENCASTRE MAY NOT BE APPLIED AT 
             THIS NODE

 ***WARNING: DEGREE OF FREEDOM 3 HAS BEEN ELIMINATED AT NODE 31 INSTANCE 
             PART-3-1 BOUNDARY CONDITION TYPE ENCASTRE MAY NOT BE APPLIED AT 
             THIS NODE

 ***WARNING: DEGREE OF FREEDOM 1 HAS BEEN ELIMINATED AT NODE 32 INSTANCE 
             PART-3-1 BOUNDARY CONDITION TYPE ENCASTRE MAY NOT BE APPLIED AT 
             THIS NODE

 ***WARNING: DEGREE OF FREEDOM 2 HAS BEEN ELIMINATED AT NODE 32 INSTANCE 
             PART-3-1 BOUNDARY CONDITION TYPE ENCASTRE MAY NOT BE APPLIED AT 
             THIS NODE

 ***WARNING: DEGREE OF FREEDOM 3 HAS BEEN ELIMINATED AT NODE 32 INSTANCE 
             PART-3-1 BOUNDARY CONDITION TYPE ENCASTRE MAY NOT BE APPLIED AT 
             THIS NODE

 ***WARNING: DEGREE OF FREEDOM 1 HAS BEEN ELIMINATED AT NODE 33 INSTANCE 
             PART-3-1 BOUNDARY CONDITION TYPE ENCASTRE MAY NOT BE APPLIED AT 
             THIS NODE

 ***WARNING: DEGREE OF FREEDOM 2 HAS BEEN ELIMINATED AT NODE 33 INSTANCE 
             PART-3-1 BOUNDARY CONDITION TYPE ENCASTRE MAY NOT BE APPLIED AT 
             THIS NODE

 ***WARNING: DEGREE OF FREEDOM 3 HAS BEEN ELIMINATED AT NODE 33 INSTANCE 
             PART-3-1 BOUNDARY CONDITION TYPE ENCASTRE MAY NOT BE APPLIED AT 
             THIS NODE

 ***WARNING: DEGREE OF FREEDOM 1 HAS BEEN ELIMINATED AT NODE 34 INSTANCE 
             PART-3-1 BOUNDARY CONDITION TYPE ENCASTRE MAY NOT BE APPLIED AT 
             THIS NODE

 ***WARNING: DEGREE OF FREEDOM 2 HAS BEEN ELIMINATED AT NODE 34 INSTANCE 
             PART-3-1 BOUNDARY CONDITION TYPE ENCASTRE MAY NOT BE APPLIED AT 
             THIS NODE

 ***WARNING: DEGREE OF FREEDOM 3 HAS BEEN ELIMINATED AT NODE 34 INSTANCE 
             PART-3-1 BOUNDARY CONDITION TYPE ENCASTRE MAY NOT BE APPLIED AT 
             THIS NODE

 ***WARNING: DEGREE OF FREEDOM 1 HAS BEEN ELIMINATED AT NODE 35 INSTANCE 
             PART-3-1 BOUNDARY CONDITION TYPE ENCASTRE MAY NOT BE APPLIED AT 
             THIS NODE

 ***WARNING: DEGREE OF FREEDOM 2 HAS BEEN ELIMINATED AT NODE 35 INSTANCE 
             PART-3-1 BOUNDARY CONDITION TYPE ENCASTRE MAY NOT BE APPLIED AT 
             THIS NODE

 ***WARNING: DEGREE OF FREEDOM 3 HAS BEEN ELIMINATED AT NODE 35 INSTANCE 
             PART-3-1 BOUNDARY CONDITION TYPE ENCASTRE MAY NOT BE APPLIED AT 
             THIS NODE

 ***WARNING: DEGREE OF FREEDOM 1 HAS BEEN ELIMINATED AT NODE 36 INSTANCE 
             PART-3-1 BOUNDARY CONDITION TYPE ENCASTRE MAY NOT BE APPLIED AT 
             THIS NODE

 ***WARNING: DEGREE OF FREEDOM 2 HAS BEEN ELIMINATED AT NODE 36 INSTANCE 
             PART-3-1 BOUNDARY CONDITION TYPE ENCASTRE MAY NOT BE APPLIED AT 
             THIS NODE

 ***WARNING: DEGREE OF FREEDOM 3 HAS BEEN ELIMINATED AT NODE 36 INSTANCE 
             PART-3-1 BOUNDARY CONDITION TYPE ENCASTRE MAY NOT BE APPLIED AT 
             THIS NODE

 ***WARNING: DEGREE OF FREEDOM 1 HAS BEEN ELIMINATED AT NODE 37 INSTANCE 
             PART-3-1 BOUNDARY CONDITION TYPE ENCASTRE MAY NOT BE APPLIED AT 
             THIS NODE

 ***WARNING: DEGREE OF FREEDOM 2 HAS BEEN ELIMINATED AT NODE 37 INSTANCE 
             PART-3-1 BOUNDARY CONDITION TYPE ENCASTRE MAY NOT BE APPLIED AT 
             THIS NODE

 ***WARNING: DEGREE OF FREEDOM 3 HAS BEEN ELIMINATED AT NODE 37 INSTANCE 
             PART-3-1 BOUNDARY CONDITION TYPE ENCASTRE MAY NOT BE APPLIED AT 
             THIS NODE

 ***WARNING: DEGREE OF FREEDOM 1 HAS BEEN ELIMINATED AT NODE 38 INSTANCE 
             PART-3-1 BOUNDARY CONDITION TYPE ENCASTRE MAY NOT BE APPLIED AT 
             THIS NODE

 ***WARNING: DEGREE OF FREEDOM 2 HAS BEEN ELIMINATED AT NODE 38 INSTANCE 
             PART-3-1 BOUNDARY CONDITION TYPE ENCASTRE MAY NOT BE APPLIED AT 
             THIS NODE

 ***WARNING: DEGREE OF FREEDOM 3 HAS BEEN ELIMINATED AT NODE 38 INSTANCE 
             PART-3-1 BOUNDARY CONDITION TYPE ENCASTRE MAY NOT BE APPLIED AT 
             THIS NODE

 ***WARNING: DEGREE OF FREEDOM 1 HAS BEEN ELIMINATED AT NODE 39 INSTANCE 
             PART-3-1 BOUNDARY CONDITION TYPE ENCASTRE MAY NOT BE APPLIED AT 
             THIS NODE

 ***WARNING: DEGREE OF FREEDOM 2 HAS BEEN ELIMINATED AT NODE 39 INSTANCE 
             PART-3-1 BOUNDARY CONDITION TYPE ENCASTRE MAY NOT BE APPLIED AT 
             THIS NODE

 ***WARNING: DEGREE OF FREEDOM 3 HAS BEEN ELIMINATED AT NODE 39 INSTANCE 
             PART-3-1 BOUNDARY CONDITION TYPE ENCASTRE MAY NOT BE APPLIED AT 
             THIS NODE

 ***WARNING: DEGREE OF FREEDOM 1 HAS BEEN ELIMINATED AT NODE 40 INSTANCE 
             PART-3-1 BOUNDARY CONDITION TYPE ENCASTRE MAY NOT BE APPLIED AT 
             THIS NODE

 ***WARNING: DEGREE OF FREEDOM 2 HAS BEEN ELIMINATED AT NODE 40 INSTANCE 
             PART-3-1 BOUNDARY CONDITION TYPE ENCASTRE MAY NOT BE APPLIED AT 
             THIS NODE

 ***WARNING: DEGREE OF FREEDOM 3 HAS BEEN ELIMINATED AT NODE 40 INSTANCE 
             PART-3-1 BOUNDARY CONDITION TYPE ENCASTRE MAY NOT BE APPLIED AT 
             THIS NODE

 ***WARNING: DEGREE OF FREEDOM 1 HAS BEEN ELIMINATED AT NODE 41 INSTANCE 
             PART-3-1 BOUNDARY CONDITION TYPE ENCASTRE MAY NOT BE APPLIED AT 
             THIS NODE

 ***WARNING: DEGREE OF FREEDOM 2 HAS BEEN ELIMINATED AT NODE 41 INSTANCE 
             PART-3-1 BOUNDARY CONDITION TYPE ENCASTRE MAY NOT BE APPLIED AT 
             THIS NODE

 ***WARNING: DEGREE OF FREEDOM 3 HAS BEEN ELIMINATED AT NODE 41 INSTANCE 
             PART-3-1 BOUNDARY CONDITION TYPE ENCASTRE MAY NOT BE APPLIED AT 
             THIS NODE

 ***WARNING: DEGREE OF FREEDOM 1 HAS BEEN ELIMINATED AT NODE 42 INSTANCE 
             PART-3-1 BOUNDARY CONDITION TYPE ENCASTRE MAY NOT BE APPLIED AT 
             THIS NODE

 ***WARNING: DEGREE OF FREEDOM 2 HAS BEEN ELIMINATED AT NODE 42 INSTANCE 
             PART-3-1 BOUNDARY CONDITION TYPE ENCASTRE MAY NOT BE APPLIED AT 
             THIS NODE

 ***WARNING: DEGREE OF FREEDOM 3 HAS BEEN ELIMINATED AT NODE 42 INSTANCE 
             PART-3-1 BOUNDARY CONDITION TYPE ENCASTRE MAY NOT BE APPLIED AT 
             THIS NODE

 ***WARNING: DEGREE OF FREEDOM 1 HAS BEEN ELIMINATED AT NODE 43 INSTANCE 
             PART-3-1 BOUNDARY CONDITION TYPE ENCASTRE MAY NOT BE APPLIED AT 
             THIS NODE

 ***WARNING: DEGREE OF FREEDOM 2 HAS BEEN ELIMINATED AT NODE 43 INSTANCE 
             PART-3-1 BOUNDARY CONDITION TYPE ENCASTRE MAY NOT BE APPLIED AT 
             THIS NODE

 ***WARNING: DEGREE OF FREEDOM 3 HAS BEEN ELIMINATED AT NODE 43 INSTANCE 
             PART-3-1 BOUNDARY CONDITION TYPE ENCASTRE MAY NOT BE APPLIED AT 
             THIS NODE

 ***WARNING: DEGREE OF FREEDOM 1 HAS BEEN ELIMINATED AT NODE 44 INSTANCE 
             PART-3-1 BOUNDARY CONDITION TYPE ENCASTRE MAY NOT BE APPLIED AT 
             THIS NODE

 ***WARNING: DEGREE OF FREEDOM 2 HAS BEEN ELIMINATED AT NODE 44 INSTANCE 
             PART-3-1 BOUNDARY CONDITION TYPE ENCASTRE MAY NOT BE APPLIED AT 
             THIS NODE

 ***WARNING: DEGREE OF FREEDOM 3 HAS BEEN ELIMINATED AT NODE 44 INSTANCE 
             PART-3-1 BOUNDARY CONDITION TYPE ENCASTRE MAY NOT BE APPLIED AT 
             THIS NODE

 ***WARNING: DEGREE OF FREEDOM 1 HAS BEEN ELIMINATED AT NODE 45 INSTANCE 
             PART-3-1 BOUNDARY CONDITION TYPE ENCASTRE MAY NOT BE APPLIED AT 
             THIS NODE

 ***WARNING: DEGREE OF FREEDOM 2 HAS BEEN ELIMINATED AT NODE 45 INSTANCE 
             PART-3-1 BOUNDARY CONDITION TYPE ENCASTRE MAY NOT BE APPLIED AT 
             THIS NODE

 ***WARNING: DEGREE OF FREEDOM 3 HAS BEEN ELIMINATED AT NODE 45 INSTANCE 
             PART-3-1 BOUNDARY CONDITION TYPE ENCASTRE MAY NOT BE APPLIED AT 
             THIS NODE

 ***WARNING: DEGREE OF FREEDOM 1 HAS BEEN ELIMINATED AT NODE 46 INSTANCE 
             PART-3-1 BOUNDARY CONDITION TYPE ENCASTRE MAY NOT BE APPLIED AT 
             THIS NODE

 ***WARNING: DEGREE OF FREEDOM 2 HAS BEEN ELIMINATED AT NODE 46 INSTANCE 
             PART-3-1 BOUNDARY CONDITION TYPE ENCASTRE MAY NOT BE APPLIED AT 
             THIS NODE

 ***WARNING: DEGREE OF FREEDOM 3 HAS BEEN ELIMINATED AT NODE 46 INSTANCE 
             PART-3-1 BOUNDARY CONDITION TYPE ENCASTRE MAY NOT BE APPLIED AT 
             THIS NODE

 ***WARNING: DEGREE OF FREEDOM 1 HAS BEEN ELIMINATED AT NODE 47 INSTANCE 
             PART-3-1 BOUNDARY CONDITION TYPE ENCASTRE MAY NOT BE APPLIED AT 
             THIS NODE

 ***WARNING: DEGREE OF FREEDOM 2 HAS BEEN ELIMINATED AT NODE 47 INSTANCE 
             PART-3-1 BOUNDARY CONDITION TYPE ENCASTRE MAY NOT BE APPLIED AT 
             THIS NODE

 ***WARNING: DEGREE OF FREEDOM 3 HAS BEEN ELIMINATED AT NODE 47 INSTANCE 
             PART-3-1 BOUNDARY CONDITION TYPE ENCASTRE MAY NOT BE APPLIED AT 
             THIS NODE

 ***WARNING: DEGREE OF FREEDOM 1 HAS BEEN ELIMINATED AT NODE 48 INSTANCE 
             PART-3-1 BOUNDARY CONDITION TYPE ENCASTRE MAY NOT BE APPLIED AT 
             THIS NODE

 ***WARNING: DEGREE OF FREEDOM 2 HAS BEEN ELIMINATED AT NODE 48 INSTANCE 
             PART-3-1 BOUNDARY CONDITION TYPE ENCASTRE MAY NOT BE APPLIED AT 
             THIS NODE

 ***WARNING: DEGREE OF FREEDOM 3 HAS BEEN ELIMINATED AT NODE 48 INSTANCE 
             PART-3-1 BOUNDARY CONDITION TYPE ENCASTRE MAY NOT BE APPLIED AT 
             THIS NODE

 ***WARNING: DEGREE OF FREEDOM 1 HAS BEEN ELIMINATED AT NODE 49 INSTANCE 
             PART-3-1 BOUNDARY CONDITION TYPE ENCASTRE MAY NOT BE APPLIED AT 
             THIS NODE

 ***WARNING: DEGREE OF FREEDOM 2 HAS BEEN ELIMINATED AT NODE 49 INSTANCE 
             PART-3-1 BOUNDARY CONDITION TYPE ENCASTRE MAY NOT BE APPLIED AT 
             THIS NODE

 ***WARNING: DEGREE OF FREEDOM 3 HAS BEEN ELIMINATED AT NODE 49 INSTANCE 
             PART-3-1 BOUNDARY CONDITION TYPE ENCASTRE MAY NOT BE APPLIED AT 
             THIS NODE

 ***WARNING: DEGREE OF FREEDOM 1 HAS BEEN ELIMINATED AT NODE 50 INSTANCE 
             PART-3-1 BOUNDARY CONDITION TYPE ENCASTRE MAY NOT BE APPLIED AT 
             THIS NODE

 ***WARNING: DEGREE OF FREEDOM 2 HAS BEEN ELIMINATED AT NODE 50 INSTANCE 
             PART-3-1 BOUNDARY CONDITION TYPE ENCASTRE MAY NOT BE APPLIED AT 
             THIS NODE

 ***WARNING: DEGREE OF FREEDOM 3 HAS BEEN ELIMINATED AT NODE 50 INSTANCE 
             PART-3-1 BOUNDARY CONDITION TYPE ENCASTRE MAY NOT BE APPLIED AT 
             THIS NODE

 ***WARNING: DEGREE OF FREEDOM 1 HAS BEEN ELIMINATED AT NODE 51 INSTANCE 
             PART-3-1 BOUNDARY CONDITION TYPE ENCASTRE MAY NOT BE APPLIED AT 
             THIS NODE

 ***WARNING: DEGREE OF FREEDOM 2 HAS BEEN ELIMINATED AT NODE 51 INSTANCE 
             PART-3-1 BOUNDARY CONDITION TYPE ENCASTRE MAY NOT BE APPLIED AT 
             THIS NODE

 ***WARNING: DEGREE OF FREEDOM 3 HAS BEEN ELIMINATED AT NODE 51 INSTANCE 
             PART-3-1 BOUNDARY CONDITION TYPE ENCASTRE MAY NOT BE APPLIED AT 
             THIS NODE

 ***WARNING: DEGREE OF FREEDOM 1 HAS BEEN ELIMINATED AT NODE 52 INSTANCE 
             PART-3-1 BOUNDARY CONDITION TYPE ENCASTRE MAY NOT BE APPLIED AT 
             THIS NODE

 ***WARNING: DEGREE OF FREEDOM 2 HAS BEEN ELIMINATED AT NODE 52 INSTANCE 
             PART-3-1 BOUNDARY CONDITION TYPE ENCASTRE MAY NOT BE APPLIED AT 
             THIS NODE

 ***WARNING: DEGREE OF FREEDOM 3 HAS BEEN ELIMINATED AT NODE 52 INSTANCE 
             PART-3-1 BOUNDARY CONDITION TYPE ENCASTRE MAY NOT BE APPLIED AT 
             THIS NODE

 ***WARNING: DEGREE OF FREEDOM 1 HAS BEEN ELIMINATED AT NODE 53 INSTANCE 
             PART-3-1 BOUNDARY CONDITION TYPE ENCASTRE MAY NOT BE APPLIED AT 
             THIS NODE

 ***WARNING: DEGREE OF FREEDOM 2 HAS BEEN ELIMINATED AT NODE 53 INSTANCE 
             PART-3-1 BOUNDARY CONDITION TYPE ENCASTRE MAY NOT BE APPLIED AT 
             THIS NODE

 ***WARNING: DEGREE OF FREEDOM 3 HAS BEEN ELIMINATED AT NODE 53 INSTANCE 
             PART-3-1 BOUNDARY CONDITION TYPE ENCASTRE MAY NOT BE APPLIED AT 
             THIS NODE

 ***WARNING: DEGREE OF FREEDOM 1 HAS BEEN ELIMINATED AT NODE 54 INSTANCE 
             PART-3-1 BOUNDARY CONDITION TYPE ENCASTRE MAY NOT BE APPLIED AT 
             THIS NODE

 ***WARNING: DEGREE OF FREEDOM 2 HAS BEEN ELIMINATED AT NODE 54 INSTANCE 
             PART-3-1 BOUNDARY CONDITION TYPE ENCASTRE MAY NOT BE APPLIED AT 
             THIS NODE

 ***WARNING: DEGREE OF FREEDOM 3 HAS BEEN ELIMINATED AT NODE 54 INSTANCE 
             PART-3-1 BOUNDARY CONDITION TYPE ENCASTRE MAY NOT BE APPLIED AT 
             THIS NODE

 ***WARNING: DEGREE OF FREEDOM 1 HAS BEEN ELIMINATED AT NODE 55 INSTANCE 
             PART-3-1 BOUNDARY CONDITION TYPE ENCASTRE MAY NOT BE APPLIED AT 
             THIS NODE

 ***WARNING: DEGREE OF FREEDOM 2 HAS BEEN ELIMINATED AT NODE 55 INSTANCE 
             PART-3-1 BOUNDARY CONDITION TYPE ENCASTRE MAY NOT BE APPLIED AT 
             THIS NODE

 ***WARNING: DEGREE OF FREEDOM 3 HAS BEEN ELIMINATED AT NODE 55 INSTANCE 
             PART-3-1 BOUNDARY CONDITION TYPE ENCASTRE MAY NOT BE APPLIED AT 
             THIS NODE

 ***WARNING: DEGREE OF FREEDOM 1 HAS BEEN ELIMINATED AT NODE 56 INSTANCE 
             PART-3-1 BOUNDARY CONDITION TYPE ENCASTRE MAY NOT BE APPLIED AT 
             THIS NODE

 ***WARNING: DEGREE OF FREEDOM 2 HAS BEEN ELIMINATED AT NODE 56 INSTANCE 
             PART-3-1 BOUNDARY CONDITION TYPE ENCASTRE MAY NOT BE APPLIED AT 
             THIS NODE

 ***WARNING: DEGREE OF FREEDOM 3 HAS BEEN ELIMINATED AT NODE 56 INSTANCE 
             PART-3-1 BOUNDARY CONDITION TYPE ENCASTRE MAY NOT BE APPLIED AT 
             THIS NODE

 ***WARNING: DEGREE OF FREEDOM 1 HAS BEEN ELIMINATED AT NODE 57 INSTANCE 
             PART-3-1 BOUNDARY CONDITION TYPE ENCASTRE MAY NOT BE APPLIED AT 
             THIS NODE

 ***WARNING: DEGREE OF FREEDOM 2 HAS BEEN ELIMINATED AT NODE 57 INSTANCE 
             PART-3-1 BOUNDARY CONDITION TYPE ENCASTRE MAY NOT BE APPLIED AT 
             THIS NODE

 ***WARNING: DEGREE OF FREEDOM 3 HAS BEEN ELIMINATED AT NODE 57 INSTANCE 
             PART-3-1 BOUNDARY CONDITION TYPE ENCASTRE MAY NOT BE APPLIED AT 
             THIS NODE

 ***WARNING: DEGREE OF FREEDOM 1 HAS BEEN ELIMINATED AT NODE 58 INSTANCE 
             PART-3-1 BOUNDARY CONDITION TYPE ENCASTRE MAY NOT BE APPLIED AT 
             THIS NODE

 ***WARNING: DEGREE OF FREEDOM 2 HAS BEEN ELIMINATED AT NODE 58 INSTANCE 
             PART-3-1 BOUNDARY CONDITION TYPE ENCASTRE MAY NOT BE APPLIED AT 
             THIS NODE

 ***WARNING: DEGREE OF FREEDOM 3 HAS BEEN ELIMINATED AT NODE 58 INSTANCE 
             PART-3-1 BOUNDARY CONDITION TYPE ENCASTRE MAY NOT BE APPLIED AT 
             THIS NODE

 ***WARNING: DEGREE OF FREEDOM 1 HAS BEEN ELIMINATED AT NODE 59 INSTANCE 
             PART-3-1 BOUNDARY CONDITION TYPE ENCASTRE MAY NOT BE APPLIED AT 
             THIS NODE

 ***WARNING: DEGREE OF FREEDOM 2 HAS BEEN ELIMINATED AT NODE 59 INSTANCE 
             PART-3-1 BOUNDARY CONDITION TYPE ENCASTRE MAY NOT BE APPLIED AT 
             THIS NODE

 ***WARNING: DEGREE OF FREEDOM 3 HAS BEEN ELIMINATED AT NODE 59 INSTANCE 
             PART-3-1 BOUNDARY CONDITION TYPE ENCASTRE MAY NOT BE APPLIED AT 
             THIS NODE

 ***WARNING: DEGREE OF FREEDOM 1 HAS BEEN ELIMINATED AT NODE 60 INSTANCE 
             PART-3-1 BOUNDARY CONDITION TYPE ENCASTRE MAY NOT BE APPLIED AT 
             THIS NODE

 ***WARNING: DEGREE OF FREEDOM 2 HAS BEEN ELIMINATED AT NODE 60 INSTANCE 
             PART-3-1 BOUNDARY CONDITION TYPE ENCASTRE MAY NOT BE APPLIED AT 
             THIS NODE

 ***WARNING: DEGREE OF FREEDOM 3 HAS BEEN ELIMINATED AT NODE 60 INSTANCE 
             PART-3-1 BOUNDARY CONDITION TYPE ENCASTRE MAY NOT BE APPLIED AT 
             THIS NODE

 ***WARNING: DEGREE OF FREEDOM 1 HAS BEEN ELIMINATED AT NODE 61 INSTANCE 
             PART-3-1 BOUNDARY CONDITION TYPE ENCASTRE MAY NOT BE APPLIED AT 
             THIS NODE

 ***WARNING: DEGREE OF FREEDOM 2 HAS BEEN ELIMINATED AT NODE 61 INSTANCE 
             PART-3-1 BOUNDARY CONDITION TYPE ENCASTRE MAY NOT BE APPLIED AT 
             THIS NODE

 ***WARNING: DEGREE OF FREEDOM 3 HAS BEEN ELIMINATED AT NODE 61 INSTANCE 
             PART-3-1 BOUNDARY CONDITION TYPE ENCASTRE MAY NOT BE APPLIED AT 
             THIS NODE

 ***WARNING: DEGREE OF FREEDOM 1 HAS BEEN ELIMINATED AT NODE 62 INSTANCE 
             PART-3-1 BOUNDARY CONDITION TYPE ENCASTRE MAY NOT BE APPLIED AT 
             THIS NODE

 ***WARNING: DEGREE OF FREEDOM 2 HAS BEEN ELIMINATED AT NODE 62 INSTANCE 
             PART-3-1 BOUNDARY CONDITION TYPE ENCASTRE MAY NOT BE APPLIED AT 
             THIS NODE

 ***WARNING: DEGREE OF FREEDOM 3 HAS BEEN ELIMINATED AT NODE 62 INSTANCE 
             PART-3-1 BOUNDARY CONDITION TYPE ENCASTRE MAY NOT BE APPLIED AT 
             THIS NODE

 ***WARNING: DEGREE OF FREEDOM 1 HAS BEEN ELIMINATED AT NODE 63 INSTANCE 
             PART-3-1 BOUNDARY CONDITION TYPE ENCASTRE MAY NOT BE APPLIED AT 
             THIS NODE

 ***WARNING: DEGREE OF FREEDOM 2 HAS BEEN ELIMINATED AT NODE 63 INSTANCE 
             PART-3-1 BOUNDARY CONDITION TYPE ENCASTRE MAY NOT BE APPLIED AT 
             THIS NODE

 ***WARNING: DEGREE OF FREEDOM 3 HAS BEEN ELIMINATED AT NODE 63 INSTANCE 
             PART-3-1 BOUNDARY CONDITION TYPE ENCASTRE MAY NOT BE APPLIED AT 
             THIS NODE

 ***WARNING: DEGREE OF FREEDOM 1 HAS BEEN ELIMINATED AT NODE 64 INSTANCE 
             PART-3-1 BOUNDARY CONDITION TYPE ENCASTRE MAY NOT BE APPLIED AT 
             THIS NODE

 ***WARNING: DEGREE OF FREEDOM 2 HAS BEEN ELIMINATED AT NODE 64 INSTANCE 
             PART-3-1 BOUNDARY CONDITION TYPE ENCASTRE MAY NOT BE APPLIED AT 
             THIS NODE

 ***WARNING: DEGREE OF FREEDOM 3 HAS BEEN ELIMINATED AT NODE 64 INSTANCE 
             PART-3-1 BOUNDARY CONDITION TYPE ENCASTRE MAY NOT BE APPLIED AT 
             THIS NODE

 ***WARNING: DEGREE OF FREEDOM 1 HAS BEEN ELIMINATED AT NODE 65 INSTANCE 
             PART-3-1 BOUNDARY CONDITION TYPE ENCASTRE MAY NOT BE APPLIED AT 
             THIS NODE

 ***WARNING: DEGREE OF FREEDOM 2 HAS BEEN ELIMINATED AT NODE 65 INSTANCE 
             PART-3-1 BOUNDARY CONDITION TYPE ENCASTRE MAY NOT BE APPLIED AT 
             THIS NODE

 ***WARNING: DEGREE OF FREEDOM 3 HAS BEEN ELIMINATED AT NODE 65 INSTANCE 
             PART-3-1 BOUNDARY CONDITION TYPE ENCASTRE MAY NOT BE APPLIED AT 
             THIS NODE

 ***WARNING: DEGREE OF FREEDOM 1 HAS BEEN ELIMINATED AT NODE 66 INSTANCE 
             PART-3-1 BOUNDARY CONDITION TYPE ENCASTRE MAY NOT BE APPLIED AT 
             THIS NODE

 ***WARNING: DEGREE OF FREEDOM 2 HAS BEEN ELIMINATED AT NODE 66 INSTANCE 
             PART-3-1 BOUNDARY CONDITION TYPE ENCASTRE MAY NOT BE APPLIED AT 
             THIS NODE

 ***WARNING: DEGREE OF FREEDOM 3 HAS BEEN ELIMINATED AT NODE 66 INSTANCE 
             PART-3-1 BOUNDARY CONDITION TYPE ENCASTRE MAY NOT BE APPLIED AT 
             THIS NODE

 ***WARNING: DEGREE OF FREEDOM 1 HAS BEEN ELIMINATED AT NODE 67 INSTANCE 
             PART-3-1 BOUNDARY CONDITION TYPE ENCASTRE MAY NOT BE APPLIED AT 
             THIS NODE

 ***WARNING: DEGREE OF FREEDOM 2 HAS BEEN ELIMINATED AT NODE 67 INSTANCE 
             PART-3-1 BOUNDARY CONDITION TYPE ENCASTRE MAY NOT BE APPLIED AT 
             THIS NODE

 ***WARNING: DEGREE OF FREEDOM 3 HAS BEEN ELIMINATED AT NODE 67 INSTANCE 
             PART-3-1 BOUNDARY CONDITION TYPE ENCASTRE MAY NOT BE APPLIED AT 
             THIS NODE

 ***WARNING: DEGREE OF FREEDOM 1 HAS BEEN ELIMINATED AT NODE 68 INSTANCE 
             PART-3-1 BOUNDARY CONDITION TYPE ENCASTRE MAY NOT BE APPLIED AT 
             THIS NODE

 ***WARNING: DEGREE OF FREEDOM 2 HAS BEEN ELIMINATED AT NODE 68 INSTANCE 
             PART-3-1 BOUNDARY CONDITION TYPE ENCASTRE MAY NOT BE APPLIED AT 
             THIS NODE

 ***WARNING: DEGREE OF FREEDOM 3 HAS BEEN ELIMINATED AT NODE 68 INSTANCE 
             PART-3-1 BOUNDARY CONDITION TYPE ENCASTRE MAY NOT BE APPLIED AT 
             THIS NODE

 ***WARNING: DEGREE OF FREEDOM 1 HAS BEEN ELIMINATED AT NODE 69 INSTANCE 
             PART-3-1 BOUNDARY CONDITION TYPE ENCASTRE MAY NOT BE APPLIED AT 
             THIS NODE

 ***WARNING: DEGREE OF FREEDOM 2 HAS BEEN ELIMINATED AT NODE 69 INSTANCE 
             PART-3-1 BOUNDARY CONDITION TYPE ENCASTRE MAY NOT BE APPLIED AT 
             THIS NODE

 ***WARNING: DEGREE OF FREEDOM 3 HAS BEEN ELIMINATED AT NODE 69 INSTANCE 
             PART-3-1 BOUNDARY CONDITION TYPE ENCASTRE MAY NOT BE APPLIED AT 
             THIS NODE

 ***WARNING: DEGREE OF FREEDOM 1 HAS BEEN ELIMINATED AT NODE 70 INSTANCE 
             PART-3-1 BOUNDARY CONDITION TYPE ENCASTRE MAY NOT BE APPLIED AT 
             THIS NODE

 ***WARNING: DEGREE OF FREEDOM 2 HAS BEEN ELIMINATED AT NODE 70 INSTANCE 
             PART-3-1 BOUNDARY CONDITION TYPE ENCASTRE MAY NOT BE APPLIED AT 
             THIS NODE

 ***WARNING: DEGREE OF FREEDOM 3 HAS BEEN ELIMINATED AT NODE 70 INSTANCE 
             PART-3-1 BOUNDARY CONDITION TYPE ENCASTRE MAY NOT BE APPLIED AT 
             THIS NODE

 ***WARNING: DEGREE OF FREEDOM 1 HAS BEEN ELIMINATED AT NODE 71 INSTANCE 
             PART-3-1 BOUNDARY CONDITION TYPE ENCASTRE MAY NOT BE APPLIED AT 
             THIS NODE

 ***WARNING: DEGREE OF FREEDOM 2 HAS BEEN ELIMINATED AT NODE 71 INSTANCE 
             PART-3-1 BOUNDARY CONDITION TYPE ENCASTRE MAY NOT BE APPLIED AT 
             THIS NODE

 ***WARNING: DEGREE OF FREEDOM 3 HAS BEEN ELIMINATED AT NODE 71 INSTANCE 
             PART-3-1 BOUNDARY CONDITION TYPE ENCASTRE MAY NOT BE APPLIED AT 
             THIS NODE

 ***WARNING: DEGREE OF FREEDOM 1 HAS BEEN ELIMINATED AT NODE 72 INSTANCE 
             PART-3-1 BOUNDARY CONDITION TYPE ENCASTRE MAY NOT BE APPLIED AT 
             THIS NODE

 ***WARNING: DEGREE OF FREEDOM 2 HAS BEEN ELIMINATED AT NODE 72 INSTANCE 
             PART-3-1 BOUNDARY CONDITION TYPE ENCASTRE MAY NOT BE APPLIED AT 
             THIS NODE

 ***WARNING: DEGREE OF FREEDOM 3 HAS BEEN ELIMINATED AT NODE 72 INSTANCE 
             PART-3-1 BOUNDARY CONDITION TYPE ENCASTRE MAY NOT BE APPLIED AT 
             THIS NODE

 ***WARNING: DEGREE OF FREEDOM 1 HAS BEEN ELIMINATED AT NODE 73 INSTANCE 
             PART-3-1 BOUNDARY CONDITION TYPE ENCASTRE MAY NOT BE APPLIED AT 
             THIS NODE

 ***WARNING: DEGREE OF FREEDOM 2 HAS BEEN ELIMINATED AT NODE 73 INSTANCE 
             PART-3-1 BOUNDARY CONDITION TYPE ENCASTRE MAY NOT BE APPLIED AT 
             THIS NODE

 ***WARNING: DEGREE OF FREEDOM 3 HAS BEEN ELIMINATED AT NODE 73 INSTANCE 
             PART-3-1 BOUNDARY CONDITION TYPE ENCASTRE MAY NOT BE APPLIED AT 
             THIS NODE

 ***WARNING: DEGREE OF FREEDOM 1 HAS BEEN ELIMINATED AT NODE 74 INSTANCE 
             PART-3-1 BOUNDARY CONDITION TYPE ENCASTRE MAY NOT BE APPLIED AT 
             THIS NODE

 ***WARNING: DEGREE OF FREEDOM 2 HAS BEEN ELIMINATED AT NODE 74 INSTANCE 
             PART-3-1 BOUNDARY CONDITION TYPE ENCASTRE MAY NOT BE APPLIED AT 
             THIS NODE

 ***WARNING: DEGREE OF FREEDOM 3 HAS BEEN ELIMINATED AT NODE 74 INSTANCE 
             PART-3-1 BOUNDARY CONDITION TYPE ENCASTRE MAY NOT BE APPLIED AT 
             THIS NODE

 ***WARNING: DEGREE OF FREEDOM 1 HAS BEEN ELIMINATED AT NODE 75 INSTANCE 
             PART-3-1 BOUNDARY CONDITION TYPE ENCASTRE MAY NOT BE APPLIED AT 
             THIS NODE

 ***WARNING: DEGREE OF FREEDOM 2 HAS BEEN ELIMINATED AT NODE 75 INSTANCE 
             PART-3-1 BOUNDARY CONDITION TYPE ENCASTRE MAY NOT BE APPLIED AT 
             THIS NODE

 ***WARNING: DEGREE OF FREEDOM 3 HAS BEEN ELIMINATED AT NODE 75 INSTANCE 
             PART-3-1 BOUNDARY CONDITION TYPE ENCASTRE MAY NOT BE APPLIED AT 
             THIS NODE

 ***WARNING: DEGREE OF FREEDOM 1 HAS BEEN ELIMINATED AT NODE 76 INSTANCE 
             PART-3-1 BOUNDARY CONDITION TYPE ENCASTRE MAY NOT BE APPLIED AT 
             THIS NODE

 ***WARNING: DEGREE OF FREEDOM 2 HAS BEEN ELIMINATED AT NODE 76 INSTANCE 
             PART-3-1 BOUNDARY CONDITION TYPE ENCASTRE MAY NOT BE APPLIED AT 
             THIS NODE

 ***WARNING: DEGREE OF FREEDOM 3 HAS BEEN ELIMINATED AT NODE 76 INSTANCE 
             PART-3-1 BOUNDARY CONDITION TYPE ENCASTRE MAY NOT BE APPLIED AT 
             THIS NODE

 ***WARNING: DEGREE OF FREEDOM 1 HAS BEEN ELIMINATED AT NODE 77 INSTANCE 
             PART-3-1 BOUNDARY CONDITION TYPE ENCASTRE MAY NOT BE APPLIED AT 
             THIS NODE

 ***WARNING: DEGREE OF FREEDOM 2 HAS BEEN ELIMINATED AT NODE 77 INSTANCE 
             PART-3-1 BOUNDARY CONDITION TYPE ENCASTRE MAY NOT BE APPLIED AT 
             THIS NODE

 ***WARNING: DEGREE OF FREEDOM 3 HAS BEEN ELIMINATED AT NODE 77 INSTANCE 
             PART-3-1 BOUNDARY CONDITION TYPE ENCASTRE MAY NOT BE APPLIED AT 
             THIS NODE

 ***WARNING: DEGREE OF FREEDOM 1 HAS BEEN ELIMINATED AT NODE 78 INSTANCE 
             PART-3-1 BOUNDARY CONDITION TYPE ENCASTRE MAY NOT BE APPLIED AT 
             THIS NODE

 ***WARNING: DEGREE OF FREEDOM 2 HAS BEEN ELIMINATED AT NODE 78 INSTANCE 
             PART-3-1 BOUNDARY CONDITION TYPE ENCASTRE MAY NOT BE APPLIED AT 
             THIS NODE

 ***WARNING: DEGREE OF FREEDOM 3 HAS BEEN ELIMINATED AT NODE 78 INSTANCE 
             PART-3-1 BOUNDARY CONDITION TYPE ENCASTRE MAY NOT BE APPLIED AT 
             THIS NODE

 ***WARNING: DEGREE OF FREEDOM 1 HAS BEEN ELIMINATED AT NODE 79 INSTANCE 
             PART-3-1 BOUNDARY CONDITION TYPE ENCASTRE MAY NOT BE APPLIED AT 
             THIS NODE

 ***WARNING: DEGREE OF FREEDOM 2 HAS BEEN ELIMINATED AT NODE 79 INSTANCE 
             PART-3-1 BOUNDARY CONDITION TYPE ENCASTRE MAY NOT BE APPLIED AT 
             THIS NODE

 ***WARNING: DEGREE OF FREEDOM 3 HAS BEEN ELIMINATED AT NODE 79 INSTANCE 
             PART-3-1 BOUNDARY CONDITION TYPE ENCASTRE MAY NOT BE APPLIED AT 
             THIS NODE

 ***WARNING: DEGREE OF FREEDOM 1 HAS BEEN ELIMINATED AT NODE 80 INSTANCE 
             PART-3-1 BOUNDARY CONDITION TYPE ENCASTRE MAY NOT BE APPLIED AT 
             THIS NODE

 ***WARNING: DEGREE OF FREEDOM 2 HAS BEEN ELIMINATED AT NODE 80 INSTANCE 
             PART-3-1 BOUNDARY CONDITION TYPE ENCASTRE MAY NOT BE APPLIED AT 
             THIS NODE

 ***WARNING: DEGREE OF FREEDOM 3 HAS BEEN ELIMINATED AT NODE 80 INSTANCE 
             PART-3-1 BOUNDARY CONDITION TYPE ENCASTRE MAY NOT BE APPLIED AT 
             THIS NODE

 ***WARNING: DEGREE OF FREEDOM 1 HAS BEEN ELIMINATED AT NODE 81 INSTANCE 
             PART-3-1 BOUNDARY CONDITION TYPE ENCASTRE MAY NOT BE APPLIED AT 
             THIS NODE

 ***WARNING: DEGREE OF FREEDOM 2 HAS BEEN ELIMINATED AT NODE 81 INSTANCE 
             PART-3-1 BOUNDARY CONDITION TYPE ENCASTRE MAY NOT BE APPLIED AT 
             THIS NODE

 ***WARNING: DEGREE OF FREEDOM 3 HAS BEEN ELIMINATED AT NODE 81 INSTANCE 
             PART-3-1 BOUNDARY CONDITION TYPE ENCASTRE MAY NOT BE APPLIED AT 
             THIS NODE

 ***WARNING: DEGREE OF FREEDOM 1 HAS BEEN ELIMINATED AT NODE 82 INSTANCE 
             PART-3-1 BOUNDARY CONDITION TYPE ENCASTRE MAY NOT BE APPLIED AT 
             THIS NODE

 ***WARNING: DEGREE OF FREEDOM 2 HAS BEEN ELIMINATED AT NODE 82 INSTANCE 
             PART-3-1 BOUNDARY CONDITION TYPE ENCASTRE MAY NOT BE APPLIED AT 
             THIS NODE

 ***WARNING: DEGREE OF FREEDOM 3 HAS BEEN ELIMINATED AT NODE 82 INSTANCE 
             PART-3-1 BOUNDARY CONDITION TYPE ENCASTRE MAY NOT BE APPLIED AT 
             THIS NODE

 ***WARNING: DEGREE OF FREEDOM 1 HAS BEEN ELIMINATED AT NODE 83 INSTANCE 
             PART-3-1 BOUNDARY CONDITION TYPE ENCASTRE MAY NOT BE APPLIED AT 
             THIS NODE

 ***WARNING: DEGREE OF FREEDOM 2 HAS BEEN ELIMINATED AT NODE 83 INSTANCE 
             PART-3-1 BOUNDARY CONDITION TYPE ENCASTRE MAY NOT BE APPLIED AT 
             THIS NODE

 ***WARNING: DEGREE OF FREEDOM 3 HAS BEEN ELIMINATED AT NODE 83 INSTANCE 
             PART-3-1 BOUNDARY CONDITION TYPE ENCASTRE MAY NOT BE APPLIED AT 
             THIS NODE

 ***WARNING: DEGREE OF FREEDOM 1 HAS BEEN ELIMINATED AT NODE 84 INSTANCE 
             PART-3-1 BOUNDARY CONDITION TYPE ENCASTRE MAY NOT BE APPLIED AT 
             THIS NODE

 ***WARNING: DEGREE OF FREEDOM 2 HAS BEEN ELIMINATED AT NODE 84 INSTANCE 
             PART-3-1 BOUNDARY CONDITION TYPE ENCASTRE MAY NOT BE APPLIED AT 
             THIS NODE

 ***WARNING: DEGREE OF FREEDOM 3 HAS BEEN ELIMINATED AT NODE 84 INSTANCE 
             PART-3-1 BOUNDARY CONDITION TYPE ENCASTRE MAY NOT BE APPLIED AT 
             THIS NODE

 ***WARNING: DEGREE OF FREEDOM 1 HAS BEEN ELIMINATED AT NODE 85 INSTANCE 
             PART-3-1 BOUNDARY CONDITION TYPE ENCASTRE MAY NOT BE APPLIED AT 
             THIS NODE

 ***WARNING: DEGREE OF FREEDOM 2 HAS BEEN ELIMINATED AT NODE 85 INSTANCE 
             PART-3-1 BOUNDARY CONDITION TYPE ENCASTRE MAY NOT BE APPLIED AT 
             THIS NODE

 ***WARNING: DEGREE OF FREEDOM 3 HAS BEEN ELIMINATED AT NODE 85 INSTANCE 
             PART-3-1 BOUNDARY CONDITION TYPE ENCASTRE MAY NOT BE APPLIED AT 
             THIS NODE

 ***WARNING: DEGREE OF FREEDOM 1 HAS BEEN ELIMINATED AT NODE 86 INSTANCE 
             PART-3-1 BOUNDARY CONDITION TYPE ENCASTRE MAY NOT BE APPLIED AT 
             THIS NODE

 ***WARNING: DEGREE OF FREEDOM 2 HAS BEEN ELIMINATED AT NODE 86 INSTANCE 
             PART-3-1 BOUNDARY CONDITION TYPE ENCASTRE MAY NOT BE APPLIED AT 
             THIS NODE

 ***WARNING: DEGREE OF FREEDOM 3 HAS BEEN ELIMINATED AT NODE 86 INSTANCE 
             PART-3-1 BOUNDARY CONDITION TYPE ENCASTRE MAY NOT BE APPLIED AT 
             THIS NODE

 ***WARNING: DEGREE OF FREEDOM 1 HAS BEEN ELIMINATED AT NODE 87 INSTANCE 
             PART-3-1 BOUNDARY CONDITION TYPE ENCASTRE MAY NOT BE APPLIED AT 
             THIS NODE

 ***WARNING: DEGREE OF FREEDOM 2 HAS BEEN ELIMINATED AT NODE 87 INSTANCE 
             PART-3-1 BOUNDARY CONDITION TYPE ENCASTRE MAY NOT BE APPLIED AT 
             THIS NODE

 ***WARNING: DEGREE OF FREEDOM 3 HAS BEEN ELIMINATED AT NODE 87 INSTANCE 
             PART-3-1 BOUNDARY CONDITION TYPE ENCASTRE MAY NOT BE APPLIED AT 
             THIS NODE

 ***WARNING: DEGREE OF FREEDOM 1 HAS BEEN ELIMINATED AT NODE 88 INSTANCE 
             PART-3-1 BOUNDARY CONDITION TYPE ENCASTRE MAY NOT BE APPLIED AT 
             THIS NODE

 ***WARNING: DEGREE OF FREEDOM 2 HAS BEEN ELIMINATED AT NODE 88 INSTANCE 
             PART-3-1 BOUNDARY CONDITION TYPE ENCASTRE MAY NOT BE APPLIED AT 
             THIS NODE

 ***WARNING: DEGREE OF FREEDOM 3 HAS BEEN ELIMINATED AT NODE 88 INSTANCE 
             PART-3-1 BOUNDARY CONDITION TYPE ENCASTRE MAY NOT BE APPLIED AT 
             THIS NODE

 ***WARNING: DEGREE OF FREEDOM 1 HAS BEEN ELIMINATED AT NODE 89 INSTANCE 
             PART-3-1 BOUNDARY CONDITION TYPE ENCASTRE MAY NOT BE APPLIED AT 
             THIS NODE

 ***WARNING: DEGREE OF FREEDOM 2 HAS BEEN ELIMINATED AT NODE 89 INSTANCE 
             PART-3-1 BOUNDARY CONDITION TYPE ENCASTRE MAY NOT BE APPLIED AT 
             THIS NODE

 ***WARNING: DEGREE OF FREEDOM 3 HAS BEEN ELIMINATED AT NODE 89 INSTANCE 
             PART-3-1 BOUNDARY CONDITION TYPE ENCASTRE MAY NOT BE APPLIED AT 
             THIS NODE

 ***WARNING: DEGREE OF FREEDOM 1 HAS BEEN ELIMINATED AT NODE 90 INSTANCE 
             PART-3-1 BOUNDARY CONDITION TYPE ENCASTRE MAY NOT BE APPLIED AT 
             THIS NODE

 ***WARNING: DEGREE OF FREEDOM 2 HAS BEEN ELIMINATED AT NODE 90 INSTANCE 
             PART-3-1 BOUNDARY CONDITION TYPE ENCASTRE MAY NOT BE APPLIED AT 
             THIS NODE

 ***WARNING: DEGREE OF FREEDOM 3 HAS BEEN ELIMINATED AT NODE 90 INSTANCE 
             PART-3-1 BOUNDARY CONDITION TYPE ENCASTRE MAY NOT BE APPLIED AT 
             THIS NODE

 ***WARNING: DEGREE OF FREEDOM 1 HAS BEEN ELIMINATED AT NODE 91 INSTANCE 
             PART-3-1 BOUNDARY CONDITION TYPE ENCASTRE MAY NOT BE APPLIED AT 
             THIS NODE

 ***WARNING: DEGREE OF FREEDOM 2 HAS BEEN ELIMINATED AT NODE 91 INSTANCE 
             PART-3-1 BOUNDARY CONDITION TYPE ENCASTRE MAY NOT BE APPLIED AT 
             THIS NODE

 ***WARNING: DEGREE OF FREEDOM 3 HAS BEEN ELIMINATED AT NODE 91 INSTANCE 
             PART-3-1 BOUNDARY CONDITION TYPE ENCASTRE MAY NOT BE APPLIED AT 
             THIS NODE

 ***WARNING: DEGREE OF FREEDOM 1 HAS BEEN ELIMINATED AT NODE 92 INSTANCE 
             PART-3-1 BOUNDARY CONDITION TYPE ENCASTRE MAY NOT BE APPLIED AT 
             THIS NODE

 ***WARNING: DEGREE OF FREEDOM 2 HAS BEEN ELIMINATED AT NODE 92 INSTANCE 
             PART-3-1 BOUNDARY CONDITION TYPE ENCASTRE MAY NOT BE APPLIED AT 
             THIS NODE

 ***WARNING: DEGREE OF FREEDOM 3 HAS BEEN ELIMINATED AT NODE 92 INSTANCE 
             PART-3-1 BOUNDARY CONDITION TYPE ENCASTRE MAY NOT BE APPLIED AT 
             THIS NODE

 ***WARNING: DEGREE OF FREEDOM 1 HAS BEEN ELIMINATED AT NODE 93 INSTANCE 
             PART-3-1 BOUNDARY CONDITION TYPE ENCASTRE MAY NOT BE APPLIED AT 
             THIS NODE

 ***WARNING: DEGREE OF FREEDOM 2 HAS BEEN ELIMINATED AT NODE 93 INSTANCE 
             PART-3-1 BOUNDARY CONDITION TYPE ENCASTRE MAY NOT BE APPLIED AT 
             THIS NODE

 ***WARNING: DEGREE OF FREEDOM 3 HAS BEEN ELIMINATED AT NODE 93 INSTANCE 
             PART-3-1 BOUNDARY CONDITION TYPE ENCASTRE MAY NOT BE APPLIED AT 
             THIS NODE

 ***WARNING: DEGREE OF FREEDOM 1 HAS BEEN ELIMINATED AT NODE 94 INSTANCE 
             PART-3-1 BOUNDARY CONDITION TYPE ENCASTRE MAY NOT BE APPLIED AT 
             THIS NODE

 ***WARNING: DEGREE OF FREEDOM 2 HAS BEEN ELIMINATED AT NODE 94 INSTANCE 
             PART-3-1 BOUNDARY CONDITION TYPE ENCASTRE MAY NOT BE APPLIED AT 
             THIS NODE

 ***WARNING: DEGREE OF FREEDOM 3 HAS BEEN ELIMINATED AT NODE 94 INSTANCE 
             PART-3-1 BOUNDARY CONDITION TYPE ENCASTRE MAY NOT BE APPLIED AT 
             THIS NODE

 ***WARNING: DEGREE OF FREEDOM 1 HAS BEEN ELIMINATED AT NODE 95 INSTANCE 
             PART-3-1 BOUNDARY CONDITION TYPE ENCASTRE MAY NOT BE APPLIED AT 
             THIS NODE

 ***WARNING: DEGREE OF FREEDOM 2 HAS BEEN ELIMINATED AT NODE 95 INSTANCE 
             PART-3-1 BOUNDARY CONDITION TYPE ENCASTRE MAY NOT BE APPLIED AT 
             THIS NODE

 ***WARNING: DEGREE OF FREEDOM 3 HAS BEEN ELIMINATED AT NODE 95 INSTANCE 
             PART-3-1 BOUNDARY CONDITION TYPE ENCASTRE MAY NOT BE APPLIED AT 
             THIS NODE

 ***WARNING: DEGREE OF FREEDOM 1 HAS BEEN ELIMINATED AT NODE 96 INSTANCE 
             PART-3-1 BOUNDARY CONDITION TYPE ENCASTRE MAY NOT BE APPLIED AT 
             THIS NODE

 ***WARNING: DEGREE OF FREEDOM 2 HAS BEEN ELIMINATED AT NODE 96 INSTANCE 
             PART-3-1 BOUNDARY CONDITION TYPE ENCASTRE MAY NOT BE APPLIED AT 
             THIS NODE

 ***WARNING: DEGREE OF FREEDOM 3 HAS BEEN ELIMINATED AT NODE 96 INSTANCE 
             PART-3-1 BOUNDARY CONDITION TYPE ENCASTRE MAY NOT BE APPLIED AT 
             THIS NODE

 ***WARNING: DEGREE OF FREEDOM 1 HAS BEEN ELIMINATED AT NODE 97 INSTANCE 
             PART-3-1 BOUNDARY CONDITION TYPE ENCASTRE MAY NOT BE APPLIED AT 
             THIS NODE

 ***WARNING: DEGREE OF FREEDOM 2 HAS BEEN ELIMINATED AT NODE 97 INSTANCE 
             PART-3-1 BOUNDARY CONDITION TYPE ENCASTRE MAY NOT BE APPLIED AT 
             THIS NODE

 ***WARNING: DEGREE OF FREEDOM 3 HAS BEEN ELIMINATED AT NODE 97 INSTANCE 
             PART-3-1 BOUNDARY CONDITION TYPE ENCASTRE MAY NOT BE APPLIED AT 
             THIS NODE

 ***WARNING: DEGREE OF FREEDOM 1 HAS BEEN ELIMINATED AT NODE 98 INSTANCE 
             PART-3-1 BOUNDARY CONDITION TYPE ENCASTRE MAY NOT BE APPLIED AT 
             THIS NODE

 ***WARNING: DEGREE OF FREEDOM 2 HAS BEEN ELIMINATED AT NODE 98 INSTANCE 
             PART-3-1 BOUNDARY CONDITION TYPE ENCASTRE MAY NOT BE APPLIED AT 
             THIS NODE

 ***WARNING: DEGREE OF FREEDOM 3 HAS BEEN ELIMINATED AT NODE 98 INSTANCE 
             PART-3-1 BOUNDARY CONDITION TYPE ENCASTRE MAY NOT BE APPLIED AT 
             THIS NODE

 ***WARNING: DEGREE OF FREEDOM 1 HAS BEEN ELIMINATED AT NODE 99 INSTANCE 
             PART-3-1 BOUNDARY CONDITION TYPE ENCASTRE MAY NOT BE APPLIED AT 
             THIS NODE

 ***WARNING: DEGREE OF FREEDOM 2 HAS BEEN ELIMINATED AT NODE 99 INSTANCE 
             PART-3-1 BOUNDARY CONDITION TYPE ENCASTRE MAY NOT BE APPLIED AT 
             THIS NODE

 ***WARNING: DEGREE OF FREEDOM 3 HAS BEEN ELIMINATED AT NODE 99 INSTANCE 
             PART-3-1 BOUNDARY CONDITION TYPE ENCASTRE MAY NOT BE APPLIED AT 
             THIS NODE

 ***WARNING: DEGREE OF FREEDOM 1 HAS BEEN ELIMINATED AT NODE 100 INSTANCE 
             PART-3-1 BOUNDARY CONDITION TYPE ENCASTRE MAY NOT BE APPLIED AT 
             THIS NODE

 ***WARNING: DEGREE OF FREEDOM 2 HAS BEEN ELIMINATED AT NODE 100 INSTANCE 
             PART-3-1 BOUNDARY CONDITION TYPE ENCASTRE MAY NOT BE APPLIED AT 
             THIS NODE

 ***WARNING: DEGREE OF FREEDOM 3 HAS BEEN ELIMINATED AT NODE 100 INSTANCE 
             PART-3-1 BOUNDARY CONDITION TYPE ENCASTRE MAY NOT BE APPLIED AT 
             THIS NODE

 ***WARNING: DEGREE OF FREEDOM 1 HAS BEEN ELIMINATED AT NODE 101 INSTANCE 
             PART-3-1 BOUNDARY CONDITION TYPE ENCASTRE MAY NOT BE APPLIED AT 
             THIS NODE

 ***WARNING: DEGREE OF FREEDOM 2 HAS BEEN ELIMINATED AT NODE 101 INSTANCE 
             PART-3-1 BOUNDARY CONDITION TYPE ENCASTRE MAY NOT BE APPLIED AT 
             THIS NODE

 ***WARNING: DEGREE OF FREEDOM 3 HAS BEEN ELIMINATED AT NODE 101 INSTANCE 
             PART-3-1 BOUNDARY CONDITION TYPE ENCASTRE MAY NOT BE APPLIED AT 
             THIS NODE

 ***WARNING: DEGREE OF FREEDOM 1 HAS BEEN ELIMINATED AT NODE 102 INSTANCE 
             PART-3-1 BOUNDARY CONDITION TYPE ENCASTRE MAY NOT BE APPLIED AT 
             THIS NODE

 ***WARNING: DEGREE OF FREEDOM 2 HAS BEEN ELIMINATED AT NODE 102 INSTANCE 
             PART-3-1 BOUNDARY CONDITION TYPE ENCASTRE MAY NOT BE APPLIED AT 
             THIS NODE

 ***WARNING: DEGREE OF FREEDOM 3 HAS BEEN ELIMINATED AT NODE 102 INSTANCE 
             PART-3-1 BOUNDARY CONDITION TYPE ENCASTRE MAY NOT BE APPLIED AT 
             THIS NODE

 ***WARNING: DEGREE OF FREEDOM 1 HAS BEEN ELIMINATED AT NODE 103 INSTANCE 
             PART-3-1 BOUNDARY CONDITION TYPE ENCASTRE MAY NOT BE APPLIED AT 
             THIS NODE

 ***WARNING: DEGREE OF FREEDOM 2 HAS BEEN ELIMINATED AT NODE 103 INSTANCE 
             PART-3-1 BOUNDARY CONDITION TYPE ENCASTRE MAY NOT BE APPLIED AT 
             THIS NODE

 ***WARNING: DEGREE OF FREEDOM 3 HAS BEEN ELIMINATED AT NODE 103 INSTANCE 
             PART-3-1 BOUNDARY CONDITION TYPE ENCASTRE MAY NOT BE APPLIED AT 
             THIS NODE

 ***WARNING: DEGREE OF FREEDOM 1 HAS BEEN ELIMINATED AT NODE 104 INSTANCE 
             PART-3-1 BOUNDARY CONDITION TYPE ENCASTRE MAY NOT BE APPLIED AT 
             THIS NODE

 ***WARNING: DEGREE OF FREEDOM 2 HAS BEEN ELIMINATED AT NODE 104 INSTANCE 
             PART-3-1 BOUNDARY CONDITION TYPE ENCASTRE MAY NOT BE APPLIED AT 
             THIS NODE

 ***WARNING: DEGREE OF FREEDOM 3 HAS BEEN ELIMINATED AT NODE 104 INSTANCE 
             PART-3-1 BOUNDARY CONDITION TYPE ENCASTRE MAY NOT BE APPLIED AT 
             THIS NODE

 ***WARNING: DEGREE OF FREEDOM 1 HAS BEEN ELIMINATED AT NODE 105 INSTANCE 
             PART-3-1 BOUNDARY CONDITION TYPE ENCASTRE MAY NOT BE APPLIED AT 
             THIS NODE

 ***WARNING: DEGREE OF FREEDOM 2 HAS BEEN ELIMINATED AT NODE 105 INSTANCE 
             PART-3-1 BOUNDARY CONDITION TYPE ENCASTRE MAY NOT BE APPLIED AT 
             THIS NODE

 ***WARNING: DEGREE OF FREEDOM 3 HAS BEEN ELIMINATED AT NODE 105 INSTANCE 
             PART-3-1 BOUNDARY CONDITION TYPE ENCASTRE MAY NOT BE APPLIED AT 
             THIS NODE

 ***WARNING: DEGREE OF FREEDOM 1 HAS BEEN ELIMINATED AT NODE 106 INSTANCE 
             PART-3-1 BOUNDARY CONDITION TYPE ENCASTRE MAY NOT BE APPLIED AT 
             THIS NODE

 ***WARNING: DEGREE OF FREEDOM 2 HAS BEEN ELIMINATED AT NODE 106 INSTANCE 
             PART-3-1 BOUNDARY CONDITION TYPE ENCASTRE MAY NOT BE APPLIED AT 
             THIS NODE

 ***WARNING: DEGREE OF FREEDOM 3 HAS BEEN ELIMINATED AT NODE 106 INSTANCE 
             PART-3-1 BOUNDARY CONDITION TYPE ENCASTRE MAY NOT BE APPLIED AT 
             THIS NODE

 ***WARNING: DEGREE OF FREEDOM 1 HAS BEEN ELIMINATED AT NODE 107 INSTANCE 
             PART-3-1 BOUNDARY CONDITION TYPE ENCASTRE MAY NOT BE APPLIED AT 
             THIS NODE

 ***WARNING: DEGREE OF FREEDOM 2 HAS BEEN ELIMINATED AT NODE 107 INSTANCE 
             PART-3-1 BOUNDARY CONDITION TYPE ENCASTRE MAY NOT BE APPLIED AT 
             THIS NODE

 ***WARNING: DEGREE OF FREEDOM 3 HAS BEEN ELIMINATED AT NODE 107 INSTANCE 
             PART-3-1 BOUNDARY CONDITION TYPE ENCASTRE MAY NOT BE APPLIED AT 
             THIS NODE

 ***WARNING: DEGREE OF FREEDOM 1 HAS BEEN ELIMINATED AT NODE 108 INSTANCE 
             PART-3-1 BOUNDARY CONDITION TYPE ENCASTRE MAY NOT BE APPLIED AT 
             THIS NODE

 ***WARNING: DEGREE OF FREEDOM 2 HAS BEEN ELIMINATED AT NODE 108 INSTANCE 
             PART-3-1 BOUNDARY CONDITION TYPE ENCASTRE MAY NOT BE APPLIED AT 
             THIS NODE

 ***WARNING: DEGREE OF FREEDOM 3 HAS BEEN ELIMINATED AT NODE 108 INSTANCE 
             PART-3-1 BOUNDARY CONDITION TYPE ENCASTRE MAY NOT BE APPLIED AT 
             THIS NODE

 ***WARNING: DEGREE OF FREEDOM 1 HAS BEEN ELIMINATED AT NODE 109 INSTANCE 
             PART-3-1 BOUNDARY CONDITION TYPE ENCASTRE MAY NOT BE APPLIED AT 
             THIS NODE

 ***WARNING: DEGREE OF FREEDOM 2 HAS BEEN ELIMINATED AT NODE 109 INSTANCE 
             PART-3-1 BOUNDARY CONDITION TYPE ENCASTRE MAY NOT BE APPLIED AT 
             THIS NODE

 ***WARNING: DEGREE OF FREEDOM 3 HAS BEEN ELIMINATED AT NODE 109 INSTANCE 
             PART-3-1 BOUNDARY CONDITION TYPE ENCASTRE MAY NOT BE APPLIED AT 
             THIS NODE

 ***WARNING: DEGREE OF FREEDOM 1 HAS BEEN ELIMINATED AT NODE 110 INSTANCE 
             PART-3-1 BOUNDARY CONDITION TYPE ENCASTRE MAY NOT BE APPLIED AT 
             THIS NODE

 ***WARNING: DEGREE OF FREEDOM 2 HAS BEEN ELIMINATED AT NODE 110 INSTANCE 
             PART-3-1 BOUNDARY CONDITION TYPE ENCASTRE MAY NOT BE APPLIED AT 
             THIS NODE

 ***WARNING: DEGREE OF FREEDOM 3 HAS BEEN ELIMINATED AT NODE 110 INSTANCE 
             PART-3-1 BOUNDARY CONDITION TYPE ENCASTRE MAY NOT BE APPLIED AT 
             THIS NODE

 ***WARNING: DEGREE OF FREEDOM 1 HAS BEEN ELIMINATED AT NODE 111 INSTANCE 
             PART-3-1 BOUNDARY CONDITION TYPE ENCASTRE MAY NOT BE APPLIED AT 
             THIS NODE

 ***WARNING: DEGREE OF FREEDOM 2 HAS BEEN ELIMINATED AT NODE 111 INSTANCE 
             PART-3-1 BOUNDARY CONDITION TYPE ENCASTRE MAY NOT BE APPLIED AT 
             THIS NODE

 ***WARNING: DEGREE OF FREEDOM 3 HAS BEEN ELIMINATED AT NODE 111 INSTANCE 
             PART-3-1 BOUNDARY CONDITION TYPE ENCASTRE MAY NOT BE APPLIED AT 
             THIS NODE

 ***WARNING: DEGREE OF FREEDOM 1 HAS BEEN ELIMINATED AT NODE 112 INSTANCE 
             PART-3-1 BOUNDARY CONDITION TYPE ENCASTRE MAY NOT BE APPLIED AT 
             THIS NODE

 ***WARNING: DEGREE OF FREEDOM 2 HAS BEEN ELIMINATED AT NODE 112 INSTANCE 
             PART-3-1 BOUNDARY CONDITION TYPE ENCASTRE MAY NOT BE APPLIED AT 
             THIS NODE

 ***WARNING: DEGREE OF FREEDOM 3 HAS BEEN ELIMINATED AT NODE 112 INSTANCE 
             PART-3-1 BOUNDARY CONDITION TYPE ENCASTRE MAY NOT BE APPLIED AT 
             THIS NODE

 ***WARNING: DEGREE OF FREEDOM 1 HAS BEEN ELIMINATED AT NODE 113 INSTANCE 
             PART-3-1 BOUNDARY CONDITION TYPE ENCASTRE MAY NOT BE APPLIED AT 
             THIS NODE

 ***WARNING: DEGREE OF FREEDOM 2 HAS BEEN ELIMINATED AT NODE 113 INSTANCE 
             PART-3-1 BOUNDARY CONDITION TYPE ENCASTRE MAY NOT BE APPLIED AT 
             THIS NODE

 ***WARNING: DEGREE OF FREEDOM 3 HAS BEEN ELIMINATED AT NODE 113 INSTANCE 
[...]
             PART-3-1 BOUNDARY CONDITION TYPE ENCASTRE MAY NOT BE APPLIED AT 
             THIS NODE

 ***WARNING: DEGREE OF FREEDOM 2 HAS BEEN ELIMINATED AT NODE 109 INSTANCE 
             PART-3-1 BOUNDARY CONDITION TYPE ENCASTRE MAY NOT BE APPLIED AT 
             THIS NODE

 ***WARNING: DEGREE OF FREEDOM 3 HAS BEEN ELIMINATED AT NODE 109 INSTANCE 
             PART-3-1 BOUNDARY CONDITION TYPE ENCASTRE MAY NOT BE APPLIED AT 
             THIS NODE

 ***WARNING: DEGREE OF FREEDOM 1 HAS BEEN ELIMINATED AT NODE 110 INSTANCE 
             PART-3-1 BOUNDARY CONDITION TYPE ENCASTRE MAY NOT BE APPLIED AT 
             THIS NODE

 ***WARNING: DEGREE OF FREEDOM 2 HAS BEEN ELIMINATED AT NODE 110 INSTANCE 
             PART-3-1 BOUNDARY CONDITION TYPE ENCASTRE MAY NOT BE APPLIED AT 
             THIS NODE

 ***WARNING: DEGREE OF FREEDOM 3 HAS BEEN ELIMINATED AT NODE 110 INSTANCE 
             PART-3-1 BOUNDARY CONDITION TYPE ENCASTRE MAY NOT BE APPLIED AT 
             THIS NODE

 ***WARNING: DEGREE OF FREEDOM 1 HAS BEEN ELIMINATED AT NODE 111 INSTANCE 
             PART-3-1 BOUNDARY CONDITION TYPE ENCASTRE MAY NOT BE APPLIED AT 
             THIS NODE

 ***WARNING: DEGREE OF FREEDOM 2 HAS BEEN ELIMINATED AT NODE 111 INSTANCE 
             PART-3-1 BOUNDARY CONDITION TYPE ENCASTRE MAY NOT BE APPLIED AT 
             THIS NODE

 ***WARNING: DEGREE OF FREEDOM 3 HAS BEEN ELIMINATED AT NODE 111 INSTANCE 
             PART-3-1 BOUNDARY CONDITION TYPE ENCASTRE MAY NOT BE APPLIED AT 
             THIS NODE

 ***WARNING: DEGREE OF FREEDOM 1 HAS BEEN ELIMINATED AT NODE 112 INSTANCE 
             PART-3-1 BOUNDARY CONDITION TYPE ENCASTRE MAY NOT BE APPLIED AT 
             THIS NODE

 ***WARNING: DEGREE OF FREEDOM 2 HAS BEEN ELIMINATED AT NODE 112 INSTANCE 
             PART-3-1 BOUNDARY CONDITION TYPE ENCASTRE MAY NOT BE APPLIED AT 
             THIS NODE

 ***WARNING: DEGREE OF FREEDOM 3 HAS BEEN ELIMINATED AT NODE 112 INSTANCE 
             PART-3-1 BOUNDARY CONDITION TYPE ENCASTRE MAY NOT BE APPLIED AT 
             THIS NODE

 ***WARNING: DEGREE OF FREEDOM 1 HAS BEEN ELIMINATED AT NODE 113 INSTANCE 
             PART-3-1 BOUNDARY CONDITION TYPE ENCASTRE MAY NOT BE APPLIED AT 
             THIS NODE

 ***WARNING: DEGREE OF FREEDOM 2 HAS BEEN ELIMINATED AT NODE 113 INSTANCE 
             PART-3-1 BOUNDARY CONDITION TYPE ENCASTRE MAY NOT BE APPLIED AT 
             THIS NODE

 ***WARNING: DEGREE OF FREEDOM 3 HAS BEEN ELIMINATED AT NODE 113 INSTANCE 
             PART-3-1 BOUNDARY CONDITION TYPE ENCASTRE MAY NOT BE APPLIED AT 
             THIS NODE

 ***WARNING: DEGREE OF FREEDOM 1 HAS BEEN ELIMINATED AT NODE 114 INSTANCE 
             PART-3-1 BOUNDARY CONDITION TYPE ENCASTRE MAY NOT BE APPLIED AT 
             THIS NODE

 ***WARNING: DEGREE OF FREEDOM 2 HAS BEEN ELIMINATED AT NODE 114 INSTANCE 
             PART-3-1 BOUNDARY CONDITION TYPE ENCASTRE MAY NOT BE APPLIED AT 
             THIS NODE

 ***WARNING: DEGREE OF FREEDOM 3 HAS BEEN ELIMINATED AT NODE 114 INSTANCE 
             PART-3-1 BOUNDARY CONDITION TYPE ENCASTRE MAY NOT BE APPLIED AT 
             THIS NODE

 ***WARNING: DEGREE OF FREEDOM 1 HAS BEEN ELIMINATED AT NODE 115 INSTANCE 
             PART-3-1 BOUNDARY CONDITION TYPE ENCASTRE MAY NOT BE APPLIED AT 
             THIS NODE

 ***WARNING: DEGREE OF FREEDOM 2 HAS BEEN ELIMINATED AT NODE 115 INSTANCE 
             PART-3-1 BOUNDARY CONDITION TYPE ENCASTRE MAY NOT BE APPLIED AT 
             THIS NODE

 ***WARNING: DEGREE OF FREEDOM 3 HAS BEEN ELIMINATED AT NODE 115 INSTANCE 
             PART-3-1 BOUNDARY CONDITION TYPE ENCASTRE MAY NOT BE APPLIED AT 
             THIS NODE

 ***WARNING: DEGREE OF FREEDOM 1 HAS BEEN ELIMINATED AT NODE 116 INSTANCE 
             PART-3-1 BOUNDARY CONDITION TYPE ENCASTRE MAY NOT BE APPLIED AT 
             THIS NODE

 ***WARNING: DEGREE OF FREEDOM 2 HAS BEEN ELIMINATED AT NODE 116 INSTANCE 
             PART-3-1 BOUNDARY CONDITION TYPE ENCASTRE MAY NOT BE APPLIED AT 
             THIS NODE

 ***WARNING: DEGREE OF FREEDOM 3 HAS BEEN ELIMINATED AT NODE 116 INSTANCE 
             PART-3-1 BOUNDARY CONDITION TYPE ENCASTRE MAY NOT BE APPLIED AT 
             THIS NODE

 ***WARNING: DEGREE OF FREEDOM 1 HAS BEEN ELIMINATED AT NODE 117 INSTANCE 
             PART-3-1 BOUNDARY CONDITION TYPE ENCASTRE MAY NOT BE APPLIED AT 
             THIS NODE

 ***WARNING: DEGREE OF FREEDOM 2 HAS BEEN ELIMINATED AT NODE 117 INSTANCE 
             PART-3-1 BOUNDARY CONDITION TYPE ENCASTRE MAY NOT BE APPLIED AT 
             THIS NODE

 ***WARNING: DEGREE OF FREEDOM 3 HAS BEEN ELIMINATED AT NODE 117 INSTANCE 
             PART-3-1 BOUNDARY CONDITION TYPE ENCASTRE MAY NOT BE APPLIED AT 
             THIS NODE

 ***WARNING: DEGREE OF FREEDOM 1 HAS BEEN ELIMINATED AT NODE 118 INSTANCE 
             PART-3-1 BOUNDARY CONDITION TYPE ENCASTRE MAY NOT BE APPLIED AT 
             THIS NODE

 ***WARNING: DEGREE OF FREEDOM 2 HAS BEEN ELIMINATED AT NODE 118 INSTANCE 
             PART-3-1 BOUNDARY CONDITION TYPE ENCASTRE MAY NOT BE APPLIED AT 
             THIS NODE

 ***WARNING: DEGREE OF FREEDOM 3 HAS BEEN ELIMINATED AT NODE 118 INSTANCE 
             PART-3-1 BOUNDARY CONDITION TYPE ENCASTRE MAY NOT BE APPLIED AT 
             THIS NODE

 ***WARNING: DEGREE OF FREEDOM 1 HAS BEEN ELIMINATED AT NODE 119 INSTANCE 
             PART-3-1 BOUNDARY CONDITION TYPE ENCASTRE MAY NOT BE APPLIED AT 
             THIS NODE

 ***WARNING: DEGREE OF FREEDOM 2 HAS BEEN ELIMINATED AT NODE 119 INSTANCE 
             PART-3-1 BOUNDARY CONDITION TYPE ENCASTRE MAY NOT BE APPLIED AT 
             THIS NODE

 ***WARNING: DEGREE OF FREEDOM 3 HAS BEEN ELIMINATED AT NODE 119 INSTANCE 
             PART-3-1 BOUNDARY CONDITION TYPE ENCASTRE MAY NOT BE APPLIED AT 
             THIS NODE

 ***WARNING: DEGREE OF FREEDOM 1 HAS BEEN ELIMINATED AT NODE 120 INSTANCE 
             PART-3-1 BOUNDARY CONDITION TYPE ENCASTRE MAY NOT BE APPLIED AT 
             THIS NODE

 ***WARNING: DEGREE OF FREEDOM 2 HAS BEEN ELIMINATED AT NODE 120 INSTANCE 
             PART-3-1 BOUNDARY CONDITION TYPE ENCASTRE MAY NOT BE APPLIED AT 
             THIS NODE

 ***WARNING: DEGREE OF FREEDOM 3 HAS BEEN ELIMINATED AT NODE 120 INSTANCE 
             PART-3-1 BOUNDARY CONDITION TYPE ENCASTRE MAY NOT BE APPLIED AT 
             THIS NODE

 ***WARNING: DEGREE OF FREEDOM 1 HAS BEEN ELIMINATED AT NODE 121 INSTANCE 
             PART-3-1 BOUNDARY CONDITION TYPE ENCASTRE MAY NOT BE APPLIED AT 
             THIS NODE

 ***WARNING: DEGREE OF FREEDOM 2 HAS BEEN ELIMINATED AT NODE 121 INSTANCE 
             PART-3-1 BOUNDARY CONDITION TYPE ENCASTRE MAY NOT BE APPLIED AT 
             THIS NODE

 ***WARNING: DEGREE OF FREEDOM 3 HAS BEEN ELIMINATED AT NODE 121 INSTANCE 
             PART-3-1 BOUNDARY CONDITION TYPE ENCASTRE MAY NOT BE APPLIED AT 
             THIS NODE

 ***WARNING: 121 nodes have dof on which incorrect boundary conditions may have 
             been specified. The nodes have been identified in node set 
             WarnNodeBCIncorrectDof.



                            P R O B L E M   S I Z E


          NUMBER OF ELEMENTS IS                                   657
          NUMBER OF ELEMENTS DEFINED BY THE USER AND *TIE         501
          NUMBER OF INTERNAL ELEMENTS GENERATED FOR CONTACT       155
          NUMBER OF NODES IS                                      922
          NUMBER OF NODES DEFINED BY THE USER                     608
          NUMBER OF INTERNAL NODES GENERATED BY THE PROGRAM       314
          TOTAL NUMBER OF VARIABLES IN THE MODEL                 3745
          (DEGREES OF FREEDOM PLUS MAX NO. OF ANY LAGRANGE MULTIPLIER
           VARIABLES. INCLUDE *PRINT,SOLVE=YES TO GET THE ACTUAL NUMBER.)



                              END OF USER INPUT PROCESSING



     JOB TIME SUMMARY
       USER TIME (SEC)      =  0.30000    
       SYSTEM TIME (SEC)    =  0.10000    
       TOTAL CPU TIME (SEC) =  0.40000    
       WALLCLOCK TIME (SEC) =          1
1

   Abaqus 2022                                  Date 19-Dez-2023   Time 16:37:59
   For use by MONTANUNIVERSITAT LEOBEN under license from Dassault Systemes or its subsidiary.

                                                                                               STEP    1  INCREMENT    1
                                                                                          TIME COMPLETED IN THIS STEP   0.00    


                        S T E P       1     D Y N A M I C   A N A L Y S I S - I M P L I C I T  I N T E G R A T I O N


                                                                                          

          DYNAMIC APPLICATION PACKED SCHEME IS                 MODERATE DISSIPATION
          HILBER-HUGHES-TAYLOR (HHT) TIME INTEGRATOR IS USED

     AUTOMATIC TIME CONTROL WITH -
          A SUGGESTED INITIAL TIME INCREMENT OF                0.100    
          AND A TOTAL TIME PERIOD OF                            1.00    
          THE MINIMUM TIME INCREMENT ALLOWED IS                1.000E-10
          THE MAXIMUM TIME INCREMENT ALLOWED IS                0.100    

          THE HALF-INCREMENT RESIDUALS WILL NOT BE CALCULATED

          INITIAL ACCELERATIONS WILL NOT BE CALCULATED

          HILBER-HUGHES-TAYLOR METHOD PARAMETERS:  ALPHA   IS  -0.414214    
                                                   BETA    IS   0.500000    
                                                   GAMMA   IS   0.914214    
          CONTACT IMPACT/RELEASE COMPUTATIONS ARE SKIPPED
          AGGRESSIVE   TIME INCREMENTATION IS USED
          STEP AMPLITUDE IS                                    STEP



                    TOTAL MASS OF MODEL

                      8.1120000E-06


                    LOCATION OF THE CENTER OF MASS OF THE MODEL

                       65.00000           32.50000           45.96194    


                    MOMENTS OF INERTIA ABOUT THE ORIGIN
                           I(XX)               I(YY)               I(ZZ)

                      3.4359127E-02      6.2891566E-02      5.1495726E-02


                    PRODUCTS OF INERTIA ABOUT THE ORIGIN
                           I(XY)               I(XZ)               I(YZ)

                     -1.7136600E-02     -2.4234812E-02     -1.2117406E-02


                    MOMENTS OF INERTIA ABOUT THE CENTER OF MASS
                           I(XX)               I(YY)               I(ZZ)

                      8.6542264E-03      1.1481765E-02      8.6542264E-03


                    PRODUCTS OF INERTIA ABOUT THE CENTER OF MASS
                           I(XY)               I(XZ)               I(YZ)

                      1.0755286E-16     -5.9656793E-12      4.8572257E-17


                              RIGID BODY MASS AND INERTIA 
                              --------------------------- 

 
 
                     REFERENCE NODE IS:       608
 
 
                     POSITION OF THE REFERENCE NODE
                               X                Y                Z
                         -35.00000          -67.50000          -1.000000
 
 
                     TOTAL MASS OF RIGID BODY
 
                          0.000000
 
 
                     LOCATION OF THE CENTER OF MASS OF RIGID BODY
                          0.0000000E+00     0.0000000E+00     0.0000000E+00
 
 
                     MOMENTS OF INERTIA ABOUT THE CENTER OF RIGID BODY
                            I(XX)               I(YY)               I(ZZ)
                          0.000000           0.000000           0.000000
 
 
                     PRODUCTS OF INERTIA ABOUT THE CENTER OF RIGID BODY
                            I(XY)               I(XZ)               I(YZ)
                          0.000000           0.000000           0.000000
  
                   M E M O R Y   E S T I M A T E
  
 PROCESS      FLOATING PT       MINIMUM MEMORY        MEMORY TO
              OPERATIONS           REQUIRED          MINIMIZE I/O
             PER ITERATION           (MB)               (MB)
  
     1          3.40E+07               18                 28
  
 NOTE:
      (1) SINCE ABAQUS DOES NOT PRE-ALLOCATE MEMORY AND ONLY ALLOCATES MEMORY AS NEEDED DURING THE ANALYSIS,
          THE MEMORY REQUIREMENT PRINTED HERE CAN ONLY BE VIEWED AS A GENERAL GUIDELINE BASED ON THE BEST
          KNOWLEDGE AVAILABLE AT THE BEGINNING OF A STEP BEFORE THE SOLUTION PROCESS HAS BEGUN.
      (2) THE ESTIMATE IS NORMALLY UPDATED AT THE BEGINNING OF EVERY STEP. IT IS THE MAXIMUM VALUE OF THE
          ESTIMATE FROM THE CURRENT STEP TO THE LAST STEP OF THE ANALYSIS, WITH UNSYMMETRIC SOLUTION TAKEN
          INTO ACCOUNT IF APPLICABLE. 
      (3) SINCE THE ESTIMATE IS BASED ON THE ACTIVE DEGREES OF FREEDOM IN THE FIRST ITERATION OF THE 
          CURRENT STEP, THE MEMORY ESTIMATE MIGHT BE SIGNIFICANTLY DIFFERENT THAN ACTUAL USAGE FOR 
          PROBLEMS WITH SUBSTANTIAL CHANGES IN ACTIVE DEGREES OF FREEDOM BETWEEN STEPS (OR EVEN WITHIN
          THE SAME STEP). EXAMPLES ARE: PROBLEMS WITH SIGNIFICANT CONTACT CHANGES, PROBLEMS WITH MODEL
          CHANGE, PROBLEMS WITH BOTH STATIC STEP AND STEADY STATE DYNAMIC PROCEDURES WHERE ACOUSTIC 
          ELEMENTS WILL ONLY BE ACTIVATED IN THE STEADY STATE DYNAMIC STEPS.
      (4) FOR MULTI-PROCESS EXECUTION, THE ESTIMATED VALUE OF FLOATING POINT OPERATIONS FOR EACH PROCESS
          IS BASED ON AN INITIAL SCHEDULING OF OPERATIONS AND MIGHT NOT REFLECT THE ACTUAL FLOATING 
          POINT OPERATIONS COMPLETED ON EACH PROCESS. OPERATIONS ARE DYNAMICALLY BALANCED DURING EXECUTION, 
          SO THE ACTUAL BALANCE OF OPERATIONS BETWEEN PROCESSES IS EXPECTED TO BE BETTER THAN THE ESTIMATE
          PRINTED HERE.
      (5) THE UPPER LIMIT OF MEMORY THAT CAN BE ALLOCATED BY ABAQUS WILL IN GENERAL DEPEND ON THE VALUE OF
          THE "MEMORY" PARAMETER AND THE AMOUNT OF PHYSICAL MEMORY AVAILABLE ON THE MACHINE. PLEASE SEE
          THE "ABAQUS ANALYSIS USER'S MANUAL" FOR MORE DETAILS. THE ACTUAL USAGE OF MEMORY AND OF DISK
          SPACE FOR SCRATCH DATA WILL DEPEND ON THIS UPPER LIMIT AS WELL AS THE MEMORY REQUIRED TO MINIMIZE
          I/O. IF THE MEMORY UPPER LIMIT IS GREATER THAN THE MEMORY REQUIRED TO MINIMIZE I/O, THEN THE ACTUAL
          MEMORY USAGE WILL BE CLOSE TO THE ESTIMATED "MEMORY TO MINIMIZE I/O" VALUE, AND THE SCRATCH DISK
          USAGE WILL BE CLOSE-TO-ZERO; OTHERWISE, THE ACTUAL MEMORY USED WILL BE CLOSE TO THE PREVIOUSLY
          MENTIONED MEMORY LIMIT, AND THE SCRATCH DISK USAGE WILL BE ROUGHLY PROPORTIONAL TO THE DIFFERENCE
          BETWEEN THE ESTIMATED "MEMORY TO MINIMIZE I/O" AND THE MEMORY UPPER LIMIT. HOWEVER ACCURATE
          ESTIMATE OF THE SCRATCH DISK SPACE IS NOT POSSIBLE.
      (6) USING "*RESTART, WRITE" CAN GENERATE A LARGE AMOUNT OF DATA WRITTEN IN THE WORK DIRECTORY.
1

   Abaqus 2022                                  Date 19-Dez-2023   Time 16:38:08
   For use by MONTANUNIVERSITAT LEOBEN under license from Dassault Systemes or its subsidiary.

                                                                                               STEP    2  INCREMENT    1
                                                                                          TIME COMPLETED IN THIS STEP   0.00    


                        S T E P       2     D Y N A M I C   A N A L Y S I S - I M P L I C I T  I N T E G R A T I O N


                                                                                          

          DYNAMIC APPLICATION PACKED SCHEME IS                 MODERATE DISSIPATION
          HILBER-HUGHES-TAYLOR (HHT) TIME INTEGRATOR IS USED

     AUTOMATIC TIME CONTROL WITH -
          A SUGGESTED INITIAL TIME INCREMENT OF                 1.00    
          AND A TOTAL TIME PERIOD OF                            1.00    
          THE MINIMUM TIME INCREMENT ALLOWED IS                1.000E-10
          THE MAXIMUM TIME INCREMENT ALLOWED IS                 1.00    

          THE HALF-INCREMENT RESIDUALS WILL NOT BE CALCULATED

          INITIAL ACCELERATIONS WILL NOT BE CALCULATED

          HILBER-HUGHES-TAYLOR METHOD PARAMETERS:  ALPHA   IS  -0.414214    
                                                   BETA    IS   0.500000    
                                                   GAMMA   IS   0.914214    
          CONTACT IMPACT/RELEASE COMPUTATIONS ARE SKIPPED
          AGGRESSIVE   TIME INCREMENTATION IS USED
          STEP AMPLITUDE IS                                    STEP
  
                   M E M O R Y   E S T I M A T E
  
 PROCESS      FLOATING PT       MINIMUM MEMORY        MEMORY TO
              OPERATIONS           REQUIRED          MINIMIZE I/O
             PER ITERATION           (MB)               (MB)
  
     1          3.65E+07               18                 29
  
 NOTE:
      (1) SINCE ABAQUS DOES NOT PRE-ALLOCATE MEMORY AND ONLY ALLOCATES MEMORY AS NEEDED DURING THE ANALYSIS,
          THE MEMORY REQUIREMENT PRINTED HERE CAN ONLY BE VIEWED AS A GENERAL GUIDELINE BASED ON THE BEST
          KNOWLEDGE AVAILABLE AT THE BEGINNING OF A STEP BEFORE THE SOLUTION PROCESS HAS BEGUN.
      (2) THE ESTIMATE IS NORMALLY UPDATED AT THE BEGINNING OF EVERY STEP. IT IS THE MAXIMUM VALUE OF THE
          ESTIMATE FROM THE CURRENT STEP TO THE LAST STEP OF THE ANALYSIS, WITH UNSYMMETRIC SOLUTION TAKEN
          INTO ACCOUNT IF APPLICABLE. 
      (3) SINCE THE ESTIMATE IS BASED ON THE ACTIVE DEGREES OF FREEDOM IN THE FIRST ITERATION OF THE 
          CURRENT STEP, THE MEMORY ESTIMATE MIGHT BE SIGNIFICANTLY DIFFERENT THAN ACTUAL USAGE FOR 
          PROBLEMS WITH SUBSTANTIAL CHANGES IN ACTIVE DEGREES OF FREEDOM BETWEEN STEPS (OR EVEN WITHIN
          THE SAME STEP). EXAMPLES ARE: PROBLEMS WITH SIGNIFICANT CONTACT CHANGES, PROBLEMS WITH MODEL
          CHANGE, PROBLEMS WITH BOTH STATIC STEP AND STEADY STATE DYNAMIC PROCEDURES WHERE ACOUSTIC 
          ELEMENTS WILL ONLY BE ACTIVATED IN THE STEADY STATE DYNAMIC STEPS.
      (4) FOR MULTI-PROCESS EXECUTION, THE ESTIMATED VALUE OF FLOATING POINT OPERATIONS FOR EACH PROCESS
          IS BASED ON AN INITIAL SCHEDULING OF OPERATIONS AND MIGHT NOT REFLECT THE ACTUAL FLOATING 
          POINT OPERATIONS COMPLETED ON EACH PROCESS. OPERATIONS ARE DYNAMICALLY BALANCED DURING EXECUTION, 
          SO THE ACTUAL BALANCE OF OPERATIONS BETWEEN PROCESSES IS EXPECTED TO BE BETTER THAN THE ESTIMATE
          PRINTED HERE.
      (5) THE UPPER LIMIT OF MEMORY THAT CAN BE ALLOCATED BY ABAQUS WILL IN GENERAL DEPEND ON THE VALUE OF
          THE "MEMORY" PARAMETER AND THE AMOUNT OF PHYSICAL MEMORY AVAILABLE ON THE MACHINE. PLEASE SEE
          THE "ABAQUS ANALYSIS USER'S MANUAL" FOR MORE DETAILS. THE ACTUAL USAGE OF MEMORY AND OF DISK
          SPACE FOR SCRATCH DATA WILL DEPEND ON THIS UPPER LIMIT AS WELL AS THE MEMORY REQUIRED TO MINIMIZE
          I/O. IF THE MEMORY UPPER LIMIT IS GREATER THAN THE MEMORY REQUIRED TO MINIMIZE I/O, THEN THE ACTUAL
          MEMORY USAGE WILL BE CLOSE TO THE ESTIMATED "MEMORY TO MINIMIZE I/O" VALUE, AND THE SCRATCH DISK
          USAGE WILL BE CLOSE-TO-ZERO; OTHERWISE, THE ACTUAL MEMORY USED WILL BE CLOSE TO THE PREVIOUSLY
          MENTIONED MEMORY LIMIT, AND THE SCRATCH DISK USAGE WILL BE ROUGHLY PROPORTIONAL TO THE DIFFERENCE
          BETWEEN THE ESTIMATED "MEMORY TO MINIMIZE I/O" AND THE MEMORY UPPER LIMIT. HOWEVER ACCURATE
          ESTIMATE OF THE SCRATCH DISK SPACE IS NOT POSSIBLE.
      (6) USING "*RESTART, WRITE" CAN GENERATE A LARGE AMOUNT OF DATA WRITTEN IN THE WORK DIRECTORY.


          THE ANALYSIS HAS BEEN COMPLETED



                              ANALYSIS COMPLETE
                              WITH    750 WARNING MESSAGES ON THE DAT FILE
                              AND      41 WARNING MESSAGES ON THE MSG FILE
                                       16 WARNINGS ARE FOR NEGATIVE EIGENVALUES



     JOB TIME SUMMARY
       USER TIME (SEC)      =   44.800    
       SYSTEM TIME (SEC)    =   5.4000    
       TOTAL CPU TIME (SEC) =   50.200    
       WALLCLOCK TIME (SEC) =         37
