1

   Abaqus 2022                                  Date 19-Dez-2023   Time 15:01:33
   For use by MONTANUNIVERSITAT LEOBEN under license from Dassault Systemes or its subsidiary.

                                                                                 
                                                                                 
 STEP    1     INCREMENT     1     STEP TIME    0.00    


                        S T E P       1     D Y N A M I C   A N A L Y S I S - I M P L I C I T  I N T E G R A T I O N


                                                                                          

          DYNAMIC APPLICATION PACKED SCHEME IS                 TRANSIENT FIDELITY  
          HILBER-HUGHES-TAYLOR (HHT) TIME INTEGRATOR IS USED

     AUTOMATIC TIME CONTROL WITH -
          A SUGGESTED INITIAL TIME INCREMENT OF                 1.00    
          AND A TOTAL TIME PERIOD OF                            1.00    
          THE MINIMUM TIME INCREMENT ALLOWED IS                1.000E-10
          THE MAXIMUM TIME INCREMENT ALLOWED IS                 1.00    
          SCALE FACTOR ON TIME AVERAGE FORCE FOR HALF-
           -INCREMENT RESIDUAL COMPUTATIONS IS                 1.000E+03

          HILBER-HUGHES-TAYLOR METHOD PARAMETERS:  ALPHA   IS  -5.000000E-02
                                                   BETA    IS   0.275625    
                                                   GAMMA   IS   0.550000    
          SINGULAR MASS TREATMENT TYPE IS                     ERROR
          CONSERVATIVE TIME INCREMENTATION IS USED
          STEP AMPLITUDE IS                                    STEP

 CONVERGENCE TOLERANCE PARAMETERS FOR FORCE    
     CRITERION FOR RESIDUAL FORCE     FOR A NONLINEAR PROBLEM          5.000E-03
     CRITERION FOR DISP.    CORRECTION IN A NONLINEAR PROBLEM          1.000E-02
     INITIAL VALUE OF TIME AVERAGE FORCE                               1.000E-02
     AVERAGE FORCE     IS TIME AVERAGE FORCE    
     ALTERNATE CRIT. FOR RESIDUAL FORCE     FOR A NONLINEAR PROBLEM    2.000E-02
     CRITERION FOR ZERO FORCE     RELATIVE TO TIME AVRG. FORCE         1.000E-05
     CRITERION FOR RESIDUAL FORCE     WHEN THERE IS ZERO FLUX          1.000E-05
     CRITERION FOR DISP.    CORRECTION WHEN THERE IS ZERO FLUX         1.000E-03
     CRITERION FOR RESIDUAL FORCE     FOR A LINEAR INCREMENT           1.000E-08
     FIELD CONVERSION RATIO                                             1.00    
     CRITERION FOR ZERO FORCE     REL. TO TIME AVRG. MAX. FORCE        1.000E-05
     CRITERION FOR ZERO DISP.    RELATIVE TO CHARACTERISTIC LENGTH     1.000E-08

 CONVERGENCE TOLERANCE PARAMETERS FOR MOMENT   
     CRITERION FOR RESIDUAL MOMENT    FOR A NONLINEAR PROBLEM          5.000E-03
     CRITERION FOR ROTATION CORRECTION IN A NONLINEAR PROBLEM          1.000E-02
     INITIAL VALUE OF TIME AVERAGE MOMENT                              1.000E-02
     AVERAGE MOMENT    IS TIME AVERAGE MOMENT   
     ALTERNATE CRIT. FOR RESIDUAL MOMENT    FOR A NONLINEAR PROBLEM    2.000E-02
     CRITERION FOR ZERO MOMENT    RELATIVE TO TIME AVRG. MOMENT        1.000E-05
     CRITERION FOR RESIDUAL MOMENT    WHEN THERE IS ZERO FLUX          1.000E-05
     CRITERION FOR ROTATION CORRECTION WHEN THERE IS ZERO FLUX         1.000E-03
     CRITERION FOR RESIDUAL MOMENT    FOR A LINEAR INCREMENT           1.000E-08
     FIELD CONVERSION RATIO                                             1.00    
     CRITERION FOR ZERO MOMENT    REL. TO TIME AVRG. MAX. MOMENT       1.000E-05

     VOLUMETRIC STRAIN COMPATIBILITY TOLERANCE FOR HYBRID SOLIDS       1.000E-05
     AXIAL STRAIN COMPATIBILITY TOLERANCE FOR HYBRID BEAMS             1.000E-05
     TRANS. SHEAR STRAIN COMPATIBILITY TOLERANCE FOR HYBRID BEAMS      1.000E-05
     SOFT CONTACT CONSTRAINT COMPATIBILITY TOLERANCE FOR P>P0          5.000E-03
     SOFT CONTACT CONSTRAINT COMPATIBILITY TOLERANCE FOR P=0.0         0.100    
     CONTACT FORCE ERROR TOLERANCE FOR CONVERT SDI=YES                 1.00    
     DISPLACEMENT COMPATIBILITY TOLERANCE FOR DCOUP ELEMENTS           1.000E-05
     ROTATION COMPATIBILITY TOLERANCE FOR DCOUP ELEMENTS               1.000E-05

 EQUILIBRIUM WILL BE CHECKED FOR SEVERE DISCONTINUITY ITERATIONS

 TIME INCREMENTATION CONTROL PARAMETERS:
     FIRST EQUILIBRIUM ITERATION FOR CONSECUTIVE DIVERGENCE CHECK              4
     EQUILIBRIUM ITERATION AT WHICH LOG. CONVERGENCE RATE CHECK BEGINS         8
     EQUILIBRIUM ITERATION AFTER WHICH ALTERNATE RESIDUAL IS USED              9
     MAXIMUM EQUILIBRIUM ITERATIONS ALLOWED                                   16
     EQUILIBRIUM ITERATION COUNT FOR CUT-BACK IN NEXT INCREMENT               10
     MAXIMUM EQUILIB. ITERS IN TWO INCREMENTS FOR TIME INCREMENT INCREASE      4
     MAXIMUM ITERATIONS FOR SEVERE DISCONTINUITIES                            50
     MAXIMUM ATTEMPTS ALLOWED IN AN INCREMENT                                  5
     MAXIMUM DISCON. ITERS IN TWO INCREMENTS FOR TIME INCREMENT INCREASE      50
     MAXIMUM CONTACT AUGMENTATIONS FOR *SURFACE BEHAVIOR,AUGMENTED LAGRANGE   50
     CONSECUTIVE INCS MEETING TIME INTEG. TOL. FOR TIME INC. INCREASE          3
     CUT-BACK FACTOR AFTER DIVERGENCE                                 0.2500    
     CUT-BACK FACTOR FOR TOO SLOW CONVERGENCE                         0.5000    
     CUT-BACK FACTOR AFTER TOO MANY EQUILIBRIUM ITERATIONS            0.7500    
     CUT-BACK FACTOR AFTER TOO MANY SEVERE DISCONTINUITY ITERATIONS   0.2500    
     CUT-BACK FACTOR AFTER PROBLEMS IN ELEMENT ASSEMBLY               0.2500    
     INCREASE FACTOR AFTER TWO INCREMENTS THAT CONVERGE QUICKLY        1.500    
     MAX. TIME INCREMENT INCREASE FACTOR ALLOWED                       1.500    
     MAX. TIME INCREMENT INCREASE FACTOR ALLOWED (DYNAMICS)            1.250    
     MAX. TIME INCREMENT INCREASE FACTOR ALLOWED (DIFFUSION)           2.000    
     MINIMUM TIME INCREMENT RATIO FOR EXTRAPOLATION TO OCCUR          0.1000    
     CUT-BACK FACTOR WHEN TIME INTEGRATION ACCURACY TOL. EXCEEDED     0.8500    
     MAX. RATIO OF TIME INTEG. MEASURE TO TOL. FOR TIME INC. INCREASE 0.7500    
     INCREASE FACTOR FOR TIME INCREMENT WHEN POSSIBLE                 0.8000    
     MIN. TIME INC. INCREASE FACTOR IN LINEAR TRANSIENT PROBLEMS      0.9500    
     MAX. RATIO OF TIME INCREMENT TO STABILITY LIMIT                   1.000    
     FRACTION OF STABILITY LIMIT FOR NEW TIME INCREMENT               0.9500    
     TIME INCREMENT INCREASE FACTOR BEFORE A TIME POINT                1.000    
     GLOBAL STABILIZATION CONTROL IS NOT USED

          PRINT OF INCREMENT NUMBER, TIME, ETC., EVERY    1  INCREMENTS

     THE MAXIMUM NUMBER OF INCREMENTS IN THIS STEP IS                   10000

     VELOCITY-BASED PARABOLIC EXTRAPOLATION WILL BE USED

     CHARACTERISTIC ELEMENT LENGTH      6.50    

     DETAILS REGARDING ACTUAL SOLUTION WAVEFRONT REQUESTED

     DETAILED OUTPUT OF DIAGNOSTICS TO DATABASE REQUESTED

     PRINT OF INCREMENT NUMBER, TIME, ETC., TO THE MESSAGE FILE EVERY     1  INCREMENTS

     ELEMENT OPERATIONS WILL BE CARRIED OUT IN PARALLEL USING   2 THREADS ON 1 DOMAIN

     PARALLEL CONTACT TRACKING ENABLED


     COLLECTING MODEL CONSTRAINT INFORMATION FOR OVERCONSTRAINT CHECKS

     COLLECTING STEP CONSTRAINT INFORMATION FOR OVERCONSTRAINT CHECKS

 ***WARNING: AT LEAST ONE OF THE NODES OF CONNECTOR ELEMENT 1 (ASSEMBLY) DOES 
             NOT HAVE ANY MASS ASSOCIATED WITH IT. THIS COULD LEAD TO EQUATION 
             SOLVER ISSUES (ZERO PIVOTS, NUMERICAL SINGULARITIES, etc.) AND 
             HENCE TO INCORRECT SOLUTIONS WHEN THE CONNECTOR ELEMENT IS 
             ENFORCING KINEMATIC CONSTRAINTS (FROM EITHER INTRINSIC, CONNECTOR 
             STOP/LOCK, or CONNECTOR MOTION). PLEASE ATTACH THE CONNECTOR NODES 
             TO ELEMENTS FOR WHICH MASS IS DEFINED (SUCH AS ELEMENTS TYPE MASS 
             WITH A SMALL MASS) TO RESOLVE THE PROBLEM.

 ***WARNING: AT LEAST ONE OF THE NODES OF CONNECTOR ELEMENT 1 (ASSEMBLY) DOES 
             NOT HAVE ANY ROTARY INERTIA ASSOCIATED WITH IT. THIS COULD LEAD TO 
             EQUATION SOLVER ISSUES (ZERO PIVOTS, NUMERICAL SINGULARITIES, 
             etc.) AND HENCE TO INCORRECT SOLUTIONS WHEN THE CONNECTOR ELEMENT 
             IS ENFORCING KINEMATIC CONSTRAINTS (FROM EITHER INTRINSIC, 
             CONNECTOR STOP/LOCK, or CONNECTOR MOTION). PLEASE ATTACH THE 
             CONNECTOR NODES TO ELEMENTS FOR WHICH ROTARY INERTIA IS DEFINED 
             (SUCH AS ELEMENTS TYPE ROTARYI) TO RESOLVE THE PROBLEM.
 
	REGULARIZED SYMMETRIC DIRECT SPARSE SOLVER RUNNING ON
 	1 HOST:        1 MPI RANK  x 2 THREADS
 	NUMBER OF EQUATIONS:     2772
 	NUMBER OF RHS:           1
 	NUMBER OF FLOPS:         3.172e+07

     CHECK POINT   START OF SOLVER    

     CHECK POINT  END OF SOLVER       

       ELAPSED USER TIME (SEC)      =   0.0000    
       ELAPSED SYSTEM TIME (SEC)    =   0.0000    
       ELAPSED TOTAL CPU TIME (SEC) =   0.0000    
       ELAPSED WALLCLOCK TIME (SEC) =          0

 ***WARNING: A CONNECTOR TYPE AXIAL IS USED IN A  GEOMETRICALLY LINEAR 
             ANALYSIS. EXTRA CARE MUST BE EXERCISED IN INTERPRETING KINEMATIC 
             OUTPUT VARIABLES (SUCH AS CU, CP, etc.) ASSOCIATED WITH THIS 
             ELEMENT. AS A CONSEQUENCE, CONNECTOR STOPS/LOCKS AND KINETIC 
             BEHAVIOR FOR THIS ELEMENT MAY BE DIFFICULT TO INTERPRET.
 
	REGULARIZED SYMMETRIC DIRECT SPARSE SOLVER RUNNING ON
 	1 HOST:        1 MPI RANK  x 2 THREADS
 	NUMBER OF EQUATIONS:     2772
 	NUMBER OF RHS:           1
 	NUMBER OF FLOPS:         3.453e+07

     CHECK POINT   START OF SOLVER    

     CHECK POINT  END OF SOLVER       

       ELAPSED USER TIME (SEC)      =  0.10000    
       ELAPSED SYSTEM TIME (SEC)    =   0.0000    
       ELAPSED TOTAL CPU TIME (SEC) =  0.10000    
       ELAPSED WALLCLOCK TIME (SEC) =          0


  INCREMENT     1 STARTS. ATTEMPT NUMBER  1, TIME INCREMENT   1.00    
 
     INITIAL ELEMENT LOAD BALANCE
            DOMAIN    1     THREAD    NUMBER OF ELEMENTS
                              1            200
                              2            201
 
	SYMMETRIC DIRECT SPARSE SOLVER RUNNING ON
 	1 HOST:        1 MPI RANK  x 2 THREADS
 	NUMBER OF EQUATIONS:     2772
 	NUMBER OF RHS:           1
 	NUMBER OF FLOPS:         3.453e+07

     CHECK POINT   START OF SOLVER    

     CHECK POINT  END OF SOLVER       

       ELAPSED USER TIME (SEC)      =  0.10000    
       ELAPSED SYSTEM TIME (SEC)    =   0.0000    
       ELAPSED TOTAL CPU TIME (SEC) =  0.10000    
       ELAPSED WALLCLOCK TIME (SEC) =          0

 ***WARNING: A CONNECTOR TYPE AXIAL IS USED IN A  GEOMETRICALLY LINEAR 
             ANALYSIS. EXTRA CARE MUST BE EXERCISED IN INTERPRETING KINEMATIC 
             OUTPUT VARIABLES (SUCH AS CU, CP, etc.) ASSOCIATED WITH THIS 
             ELEMENT. AS A CONSEQUENCE, CONNECTOR STOPS/LOCKS AND KINETIC 
             BEHAVIOR FOR THIS ELEMENT MAY BE DIFFICULT TO INTERPRET.

               CONVERGENCE CHECKS FOR EQUILIBRIUM ITERATION     1


 AVERAGE FORCE                      0.842       TIME AVG. FORCE       0.842    
 LARGEST RESIDUAL FORCE             8.588E-11   AT NODE        105   DOF  3
   INSTANCE: PART-1-3                                                                        
 LARGEST INCREMENT OF DISP.         -80.0       AT NODE         11   DOF  3
   INSTANCE: PART-1-2                                                                        
 LARGEST CORRECTION TO DISP.        -80.0       AT NODE         11   DOF  3
   INSTANCE: PART-1-2                                                                        
          THE FORCE     EQUILIBRIUM RESPONSE WAS LINEAR IN THIS INCREMENT

 AVERAGE MOMENT                     9.477E-02   TIME AVG. MOMENT      9.477E-02
 LARGEST RESIDUAL MOMENT           -5.997E-11   AT NODE         17   DOF  5
   INSTANCE: PART-1-2                                                                        
 LARGEST INCREMENT OF ROTATION     -0.894       AT NODE         67   DOF  5
   INSTANCE: PART-1-3                                                                        
 LARGEST CORRECTION TO ROTATION    -0.894       AT NODE         67   DOF  5
   INSTANCE: PART-1-3                                                                        
          THE MOMENT    EQUILIBRIUM RESPONSE WAS LINEAR IN THIS INCREMENT

 ***WARNING: A CONNECTOR TYPE AXIAL IS USED IN A  GEOMETRICALLY LINEAR 
             ANALYSIS. EXTRA CARE MUST BE EXERCISED IN INTERPRETING KINEMATIC 
             OUTPUT VARIABLES (SUCH AS CU, CP, etc.) ASSOCIATED WITH THIS 
             ELEMENT. AS A CONSEQUENCE, CONNECTOR STOPS/LOCKS AND KINETIC 
             BEHAVIOR FOR THIS ELEMENT MAY BE DIFFICULT TO INTERPRET.

  MAXIMUM HALF-INCREMENT FORCE RESIDUAL IS  -1.380E+07 AND OCCURS AT NODE         56 INSTANCE PART-1-1                                                                        
  MAXIMUM HALF-INCREMENT MOMENT RESIDUAL IS   4.603E+06 AND OCCURS AT NODE         57 INSTANCE PART-1-3                                                                        
 

 ***NOTE: THE TIME INTEGRATION ACCURACY TOLERANCE HAS BEEN EXCEEDED.


  INCREMENT     1 STARTS. ATTEMPT NUMBER  2, TIME INCREMENT  1.750E-05
 
	SYMMETRIC DIRECT SPARSE SOLVER RUNNING ON
 	1 HOST:        1 MPI RANK  x 2 THREADS
 	NUMBER OF EQUATIONS:     2772
 	NUMBER OF RHS:           1
 	NUMBER OF FLOPS:         3.453e+07

     CHECK POINT   START OF SOLVER    

     CHECK POINT  END OF SOLVER       

       ELAPSED USER TIME (SEC)      =   0.0000    
       ELAPSED SYSTEM TIME (SEC)    =   0.0000    
       ELAPSED TOTAL CPU TIME (SEC) =   0.0000    
       ELAPSED WALLCLOCK TIME (SEC) =          0

 ***WARNING: A CONNECTOR TYPE AXIAL IS USED IN A  GEOMETRICALLY LINEAR 
             ANALYSIS. EXTRA CARE MUST BE EXERCISED IN INTERPRETING KINEMATIC 
             OUTPUT VARIABLES (SUCH AS CU, CP, etc.) ASSOCIATED WITH THIS 
             ELEMENT. AS A CONSEQUENCE, CONNECTOR STOPS/LOCKS AND KINETIC 
             BEHAVIOR FOR THIS ELEMENT MAY BE DIFFICULT TO INTERPRET.

               CONVERGENCE CHECKS FOR EQUILIBRIUM ITERATION     1


 AVERAGE FORCE                      1.022E-02   TIME AVG. FORCE       1.022E-02
 LARGEST RESIDUAL FORCE            -3.596E-15   AT NODE         56   DOF  1
   INSTANCE: PART-1-1                                                                        
 LARGEST INCREMENT OF DISP.        -1.400E-03   AT NODE         11   DOF  3
   INSTANCE: PART-1-2                                                                        
 LARGEST CORRECTION TO DISP.       -1.400E-03   AT NODE         11   DOF  3
   INSTANCE: PART-1-2                                                                        
          THE FORCE     EQUILIBRIUM RESPONSE WAS LINEAR IN THIS INCREMENT

 AVERAGE MOMENT                     1.946E-04   TIME AVG. MOMENT      1.946E-04
 LARGEST RESIDUAL MOMENT            7.875E-16   AT NODE         99   DOF  5
   INSTANCE: PART-1-2                                                                        
 LARGEST INCREMENT OF ROTATION     -2.459E-04   AT NODE        121   DOF  5
   INSTANCE: PART-1-3                                                                        
 LARGEST CORRECTION TO ROTATION    -2.459E-04   AT NODE        121   DOF  5
   INSTANCE: PART-1-3                                                                        
          THE MOMENT    EQUILIBRIUM RESPONSE WAS LINEAR IN THIS INCREMENT

 ***WARNING: A CONNECTOR TYPE AXIAL IS USED IN A  GEOMETRICALLY LINEAR 
             ANALYSIS. EXTRA CARE MUST BE EXERCISED IN INTERPRETING KINEMATIC 
             OUTPUT VARIABLES (SUCH AS CU, CP, etc.) ASSOCIATED WITH THIS 
             ELEMENT. AS A CONSEQUENCE, CONNECTOR STOPS/LOCKS AND KINETIC 
             BEHAVIOR FOR THIS ELEMENT MAY BE DIFFICULT TO INTERPRET.

  MAXIMUM HALF-INCREMENT FORCE RESIDUAL IS   4.235E-02 AND OCCURS AT NODE         65 INSTANCE PART-1-3                                                                        
  MAXIMUM HALF-INCREMENT MOMENT RESIDUAL IS   1.414E-03 AND OCCURS AT NODE         56 INSTANCE PART-1-1                                                                        

 ITERATION SUMMARY FOR THE INCREMENT:   1 TOTAL ITERATIONS, OF WHICH
   0 ARE SEVERE DISCONTINUITY ITERATIONS AND  1 ARE EQUILIBRIUM ITERATIONS.

 TIME INCREMENT COMPLETED  1.750E-05,  FRACTION OF STEP COMPLETED  1.750E-05
 STEP TIME COMPLETED       1.750E-05,  TOTAL TIME COMPLETED        1.750E-05


  INCREMENT     2 STARTS. ATTEMPT NUMBER  1, TIME INCREMENT  1.750E-05
 
	SYMMETRIC DIRECT SPARSE SOLVER RUNNING ON
 	1 HOST:        1 MPI RANK  x 2 THREADS
 	NUMBER OF EQUATIONS:     2772
 	NUMBER OF RHS:           1
 	NUMBER OF FLOPS:         3.476e+07

     CHECK POINT   START OF SOLVER    

     CHECK POINT  END OF SOLVER       

       ELAPSED USER TIME (SEC)      =   0.0000    
       ELAPSED SYSTEM TIME (SEC)    =   0.0000    
       ELAPSED TOTAL CPU TIME (SEC) =   0.0000    
       ELAPSED WALLCLOCK TIME (SEC) =          0

               CONVERGENCE CHECKS FOR EQUILIBRIUM ITERATION     1


 AVERAGE FORCE                      1.717E-02   TIME AVG. FORCE       1.369E-02
 LARGEST RESIDUAL FORCE             2.807E-15   AT NODE         56   DOF  1
   INSTANCE: PART-1-1                                                                        
 LARGEST INCREMENT OF DISP.        -1.400E-03   AT NODE         11   DOF  3
   INSTANCE: PART-1-2                                                                        
 LARGEST CORRECTION TO DISP.       -5.545E-04   AT NODE        120   DOF  1
   INSTANCE: PART-1-3                                                                        
          THE FORCE     EQUILIBRIUM RESPONSE WAS LINEAR IN THIS INCREMENT

 AVERAGE MOMENT                     3.341E-04   TIME AVG. MOMENT      2.643E-04
 LARGEST RESIDUAL MOMENT           -1.357E-15   AT NODE         98   DOF  5
   INSTANCE: PART-1-3                                                                        
 LARGEST INCREMENT OF ROTATION     -1.838E-04   AT NODE        121   DOF  5
   INSTANCE: PART-1-3                                                                        
 LARGEST CORRECTION TO ROTATION     5.533E-04   AT NODE         22   DOF  5
   INSTANCE: PART-1-3                                                                        
          THE MOMENT    EQUILIBRIUM RESPONSE WAS LINEAR IN THIS INCREMENT

  MAXIMUM HALF-INCREMENT FORCE RESIDUAL IS   0.489     AND OCCURS AT NODE         21 INSTANCE PART-1-2                                                                        
  MAXIMUM HALF-INCREMENT MOMENT RESIDUAL IS  -0.703     AND OCCURS AT NODE         65 INSTANCE PART-1-2                                                                        
 

 ***NOTE: THE TIME INTEGRATION ACCURACY TOLERANCE HAS BEEN EXCEEDED.


  INCREMENT     2 STARTS. ATTEMPT NUMBER  2, TIME INCREMENT  5.595E-06
 
	SYMMETRIC DIRECT SPARSE SOLVER RUNNING ON
 	1 HOST:        1 MPI RANK  x 2 THREADS
 	NUMBER OF EQUATIONS:     2772
 	NUMBER OF RHS:           1
 	NUMBER OF FLOPS:         3.476e+07

     CHECK POINT   START OF SOLVER    

     CHECK POINT  END OF SOLVER       

       ELAPSED USER TIME (SEC)      =  0.10000    
       ELAPSED SYSTEM TIME (SEC)    =   0.0000    
       ELAPSED TOTAL CPU TIME (SEC) =  0.10000    
       ELAPSED WALLCLOCK TIME (SEC) =          0

               CONVERGENCE CHECKS FOR EQUILIBRIUM ITERATION     1


 AVERAGE FORCE                      1.384E-02   TIME AVG. FORCE       1.203E-02
 LARGEST RESIDUAL FORCE            -5.111E-15   AT NODE         66   DOF  1
   INSTANCE: PART-2-1                                                                        
 LARGEST INCREMENT OF DISP.        -4.476E-04   AT NODE         11   DOF  3
   INSTANCE: PART-1-2                                                                        
 LARGEST CORRECTION TO DISP.       -5.602E-05   AT NODE        119   DOF  1
   INSTANCE: PART-1-2                                                                        
          THE FORCE     EQUILIBRIUM RESPONSE WAS LINEAR IN THIS INCREMENT

 AVERAGE MOMENT                     2.259E-04   TIME AVG. MOMENT      2.102E-04
 LARGEST RESIDUAL MOMENT           -3.003E-16   AT NODE         88   DOF  5
   INSTANCE: PART-1-2                                                                        
 LARGEST INCREMENT OF ROTATION     -6.783E-05   AT NODE        121   DOF  5
   INSTANCE: PART-1-3                                                                        
 LARGEST CORRECTION TO ROTATION     8.954E-05   AT NODE         22   DOF  5
   INSTANCE: PART-1-3                                                                        
          THE MOMENT    EQUILIBRIUM RESPONSE WAS LINEAR IN THIS INCREMENT

  MAXIMUM HALF-INCREMENT FORCE RESIDUAL IS   6.720E-02 AND OCCURS AT NODE         21 INSTANCE PART-1-2                                                                        
  MAXIMUM HALF-INCREMENT MOMENT RESIDUAL IS  -0.167     AND OCCURS AT NODE        109 INSTANCE PART-1-2                                                                        

 ITERATION SUMMARY FOR THE INCREMENT:   1 TOTAL ITERATIONS, OF WHICH
   0 ARE SEVERE DISCONTINUITY ITERATIONS AND  1 ARE EQUILIBRIUM ITERATIONS.

 TIME INCREMENT COMPLETED  5.595E-06,  FRACTION OF STEP COMPLETED  2.309E-05
 STEP TIME COMPLETED       2.309E-05,  TOTAL TIME COMPLETED        2.309E-05


  INCREMENT     3 STARTS. ATTEMPT NUMBER  1, TIME INCREMENT  5.595E-06
 
	SYMMETRIC DIRECT SPARSE SOLVER RUNNING ON
 	1 HOST:        1 MPI RANK  x 2 THREADS
 	NUMBER OF EQUATIONS:     2772
 	NUMBER OF RHS:           1
 	NUMBER OF FLOPS:         3.476e+07

     CHECK POINT   START OF SOLVER    

     CHECK POINT  END OF SOLVER       

       ELAPSED USER TIME (SEC)      =  0.10000    
       ELAPSED SYSTEM TIME (SEC)    =   0.0000    
       ELAPSED TOTAL CPU TIME (SEC) =  0.10000    
       ELAPSED WALLCLOCK TIME (SEC) =          0

               CONVERGENCE CHECKS FOR EQUILIBRIUM ITERATION     1


 AVERAGE FORCE                      1.564E-02   TIME AVG. FORCE       1.323E-02
 LARGEST RESIDUAL FORCE             4.173E-15   AT NODE         56   DOF  1
   INSTANCE: PART-1-1                                                                        
 LARGEST INCREMENT OF DISP.        -4.476E-04   AT NODE         11   DOF  3
   INSTANCE: PART-1-2                                                                        
 LARGEST CORRECTION TO DISP.       -6.846E-05   AT NODE        120   DOF  1
   INSTANCE: PART-1-3                                                                        
          THE FORCE     EQUILIBRIUM RESPONSE WAS LINEAR IN THIS INCREMENT

 AVERAGE MOMENT                     3.417E-04   TIME AVG. MOMENT      2.540E-04
 LARGEST RESIDUAL MOMENT            6.731E-16   AT NODE         21   DOF  5
   INSTANCE: PART-1-3                                                                        
 LARGEST INCREMENT OF ROTATION     -5.087E-05   AT NODE         11   DOF  5
   INSTANCE: PART-1-3                                                                        
 LARGEST CORRECTION TO ROTATION     1.600E-04   AT NODE         66   DOF  5
   INSTANCE: PART-1-2                                                                        
          THE MOMENT    EQUILIBRIUM RESPONSE WAS LINEAR IN THIS INCREMENT

  MAXIMUM HALF-INCREMENT FORCE RESIDUAL IS  -9.155E-02 AND OCCURS AT NODE         32 INSTANCE PART-1-3                                                                        
  MAXIMUM HALF-INCREMENT MOMENT RESIDUAL IS   0.243     AND OCCURS AT NODE        109 INSTANCE PART-1-2                                                                        

 ITERATION SUMMARY FOR THE INCREMENT:   1 TOTAL ITERATIONS, OF WHICH
   0 ARE SEVERE DISCONTINUITY ITERATIONS AND  1 ARE EQUILIBRIUM ITERATIONS.

 TIME INCREMENT COMPLETED  5.595E-06,  FRACTION OF STEP COMPLETED  2.869E-05
 STEP TIME COMPLETED       2.869E-05,  TOTAL TIME COMPLETED        2.869E-05


  INCREMENT     4 STARTS. ATTEMPT NUMBER  1, TIME INCREMENT  5.595E-06
 
	SYMMETRIC DIRECT SPARSE SOLVER RUNNING ON
 	1 HOST:        1 MPI RANK  x 2 THREADS
 	NUMBER OF EQUATIONS:     2772
 	NUMBER OF RHS:           1
 	NUMBER OF FLOPS:         3.476e+07

     CHECK POINT   START OF SOLVER    

     CHECK POINT  END OF SOLVER       

       ELAPSED USER TIME (SEC)      =   0.0000    
       ELAPSED SYSTEM TIME (SEC)    =   0.0000    
       ELAPSED TOTAL CPU TIME (SEC) =   0.0000    
       ELAPSED WALLCLOCK TIME (SEC) =          0

               CONVERGENCE CHECKS FOR EQUILIBRIUM ITERATION     1


 AVERAGE FORCE                      1.732E-02   TIME AVG. FORCE       1.425E-02
 LARGEST RESIDUAL FORCE             2.351E-15   AT NODE         56   DOF  1
   INSTANCE: PART-1-1                                                                        
 LARGEST INCREMENT OF DISP.        -4.476E-04   AT NODE         11   DOF  3
   INSTANCE: PART-1-2                                                                        
 LARGEST CORRECTION TO DISP.       -6.163E-05   AT NODE         11   DOF  2
   INSTANCE: PART-1-2                                                                        
          THE FORCE     EQUILIBRIUM RESPONSE WAS LINEAR IN THIS INCREMENT

 AVERAGE MOMENT                     3.561E-04   TIME AVG. MOMENT      2.796E-04
 LARGEST RESIDUAL MOMENT            5.664E-16   AT NODE         65   DOF  5
   INSTANCE: PART-1-2                                                                        
 LARGEST INCREMENT OF ROTATION     -5.574E-05   AT NODE        121   DOF  5
   INSTANCE: PART-1-3                                                                        
 LARGEST CORRECTION TO ROTATION    -1.358E-04   AT NODE         77   DOF  5
   INSTANCE: PART-1-2                                                                        
          THE MOMENT    EQUILIBRIUM RESPONSE WAS LINEAR IN THIS INCREMENT

  MAXIMUM HALF-INCREMENT FORCE RESIDUAL IS   9.491E-02 AND OCCURS AT NODE         21 INSTANCE PART-1-3                                                                        
  MAXIMUM HALF-INCREMENT MOMENT RESIDUAL IS  -0.301     AND OCCURS AT NODE         21 INSTANCE PART-1-2                                                                        
 

 ***NOTE: THE TIME INTEGRATION ACCURACY TOLERANCE HAS BEEN EXCEEDED.


  INCREMENT     4 STARTS. ATTEMPT NUMBER  2, TIME INCREMENT  4.410E-06
 
	SYMMETRIC DIRECT SPARSE SOLVER RUNNING ON
 	1 HOST:        1 MPI RANK  x 2 THREADS
 	NUMBER OF EQUATIONS:     2772
 	NUMBER OF RHS:           1
 	NUMBER OF FLOPS:         3.476e+07

     CHECK POINT   START OF SOLVER    

     CHECK POINT  END OF SOLVER       

       ELAPSED USER TIME (SEC)      =  0.10000    
       ELAPSED SYSTEM TIME (SEC)    =  0.10000    
       ELAPSED TOTAL CPU TIME (SEC) =  0.20000    
       ELAPSED WALLCLOCK TIME (SEC) =          1

               CONVERGENCE CHECKS FOR EQUILIBRIUM ITERATION     1


 AVERAGE FORCE                      1.690E-02   TIME AVG. FORCE       1.415E-02
 LARGEST RESIDUAL FORCE             2.233E-15   AT NODE         66   DOF  1
   INSTANCE: PART-2-1                                                                        
 LARGEST INCREMENT OF DISP.        -3.528E-04   AT NODE         11   DOF  3
   INSTANCE: PART-1-2                                                                        
 LARGEST CORRECTION TO DISP.        3.312E-05   AT NODE        119   DOF  3
   INSTANCE: PART-1-3                                                                        
          THE FORCE     EQUILIBRIUM RESPONSE WAS LINEAR IN THIS INCREMENT

 AVERAGE MOMENT                     3.428E-04   TIME AVG. MOMENT      2.762E-04
 LARGEST RESIDUAL MOMENT            4.111E-16   AT NODE         32   DOF  5
   INSTANCE: PART-1-3                                                                        
 LARGEST INCREMENT OF ROTATION     -4.551E-05   AT NODE         11   DOF  5
   INSTANCE: PART-1-3                                                                        
 LARGEST CORRECTION TO ROTATION    -5.026E-05   AT NODE         22   DOF  5
   INSTANCE: PART-1-2                                                                        
          THE MOMENT    EQUILIBRIUM RESPONSE WAS LINEAR IN THIS INCREMENT

  MAXIMUM HALF-INCREMENT FORCE RESIDUAL IS   6.060E-02 AND OCCURS AT NODE         21 INSTANCE PART-1-3                                                                        
  MAXIMUM HALF-INCREMENT MOMENT RESIDUAL IS  -0.209     AND OCCURS AT NODE         21 INSTANCE PART-1-2                                                                        

 ITERATION SUMMARY FOR THE INCREMENT:   1 TOTAL ITERATIONS, OF WHICH
   0 ARE SEVERE DISCONTINUITY ITERATIONS AND  1 ARE EQUILIBRIUM ITERATIONS.

 TIME INCREMENT COMPLETED  4.410E-06,  FRACTION OF STEP COMPLETED  3.310E-05
 STEP TIME COMPLETED       3.310E-05,  TOTAL TIME COMPLETED        3.310E-05


  INCREMENT     5 STARTS. ATTEMPT NUMBER  1, TIME INCREMENT  4.410E-06
 
	SYMMETRIC DIRECT SPARSE SOLVER RUNNING ON
 	1 HOST:        1 MPI RANK  x 2 THREADS
 	NUMBER OF EQUATIONS:     2772
 	NUMBER OF RHS:           1
 	NUMBER OF FLOPS:         3.476e+07

     CHECK POINT   START OF SOLVER    

     CHECK POINT  END OF SOLVER       

       ELAPSED USER TIME (SEC)      =   0.0000    
       ELAPSED SYSTEM TIME (SEC)    =   0.0000    
       ELAPSED TOTAL CPU TIME (SEC) =   0.0000    
       ELAPSED WALLCLOCK TIME (SEC) =          0

               CONVERGENCE CHECKS FOR EQUILIBRIUM ITERATION     1


 AVERAGE FORCE                      1.813E-02   TIME AVG. FORCE       1.495E-02
 LARGEST RESIDUAL FORCE            -1.470E-15   AT NODE         66   DOF  1
   INSTANCE: PART-2-1                                                                        
 LARGEST INCREMENT OF DISP.        -3.528E-04   AT NODE         11   DOF  3
   INSTANCE: PART-1-2                                                                        
 LARGEST CORRECTION TO DISP.        3.043E-05   AT NODE          8   DOF  3
   INSTANCE: PART-1-2                                                                        
          THE FORCE     EQUILIBRIUM RESPONSE WAS LINEAR IN THIS INCREMENT

 AVERAGE MOMENT                     4.831E-04   TIME AVG. MOMENT      3.176E-04
 LARGEST RESIDUAL MOMENT            8.153E-16   AT NODE         65   DOF  5
   INSTANCE: PART-1-3                                                                        
 LARGEST INCREMENT OF ROTATION     -3.197E-05   AT NODE        121   DOF  5
   INSTANCE: PART-1-3                                                                        
 LARGEST CORRECTION TO ROTATION     8.449E-05   AT NODE         66   DOF  5
   INSTANCE: PART-1-2                                                                        
          THE MOMENT    EQUILIBRIUM RESPONSE WAS LINEAR IN THIS INCREMENT

  MAXIMUM HALF-INCREMENT FORCE RESIDUAL IS  -6.007E-02 AND OCCURS AT NODE         98 INSTANCE PART-1-2                                                                        
  MAXIMUM HALF-INCREMENT MOMENT RESIDUAL IS   0.245     AND OCCURS AT NODE         21 INSTANCE PART-1-2                                                                        

 ITERATION SUMMARY FOR THE INCREMENT:   1 TOTAL ITERATIONS, OF WHICH
   0 ARE SEVERE DISCONTINUITY ITERATIONS AND  1 ARE EQUILIBRIUM ITERATIONS.

 TIME INCREMENT COMPLETED  4.410E-06,  FRACTION OF STEP COMPLETED  3.751E-05
 STEP TIME COMPLETED       3.751E-05,  TOTAL TIME COMPLETED        3.751E-05


  INCREMENT     6 STARTS. ATTEMPT NUMBER  1, TIME INCREMENT  4.410E-06
 
	SYMMETRIC DIRECT SPARSE SOLVER RUNNING ON
 	1 HOST:        1 MPI RANK  x 2 THREADS
 	NUMBER OF EQUATIONS:     2772
 	NUMBER OF RHS:           1
 	NUMBER OF FLOPS:         3.476e+07

     CHECK POINT   START OF SOLVER    

     CHECK POINT  END OF SOLVER       

       ELAPSED USER TIME (SEC)      =   0.0000    
       ELAPSED SYSTEM TIME (SEC)    =   0.0000    
       ELAPSED TOTAL CPU TIME (SEC) =   0.0000    
       ELAPSED WALLCLOCK TIME (SEC) =          0

               CONVERGENCE CHECKS FOR EQUILIBRIUM ITERATION     1


 AVERAGE FORCE                      1.910E-02   TIME AVG. FORCE       1.564E-02
 LARGEST RESIDUAL FORCE             8.344E-16   AT NODE         56   DOF  1
   INSTANCE: PART-1-1                                                                        
 LARGEST INCREMENT OF DISP.        -3.528E-04   AT NODE         11   DOF  3
   INSTANCE: PART-1-2                                                                        
 LARGEST CORRECTION TO DISP.        3.577E-05   AT NODE         11   DOF  2
   INSTANCE: PART-1-3                                                                        
          THE FORCE     EQUILIBRIUM RESPONSE WAS LINEAR IN THIS INCREMENT

 AVERAGE MOMENT                     3.773E-04   TIME AVG. MOMENT      3.276E-04
 LARGEST RESIDUAL MOMENT           -6.219E-16   AT NODE         88   DOF  5
   INSTANCE: PART-1-2                                                                        
 LARGEST INCREMENT OF ROTATION     -3.996E-05   AT NODE        121   DOF  5
   INSTANCE: PART-1-3                                                                        
 LARGEST CORRECTION TO ROTATION     6.034E-05   AT NODE        121   DOF  5
   INSTANCE: PART-1-3                                                                        
          THE MOMENT    EQUILIBRIUM RESPONSE WAS LINEAR IN THIS INCREMENT

  MAXIMUM HALF-INCREMENT FORCE RESIDUAL IS   5.208E-02 AND OCCURS AT NODE         21 INSTANCE PART-1-2                                                                        
  MAXIMUM HALF-INCREMENT MOMENT RESIDUAL IS  -0.266     AND OCCURS AT NODE         54 INSTANCE PART-1-2                                                                        

 ITERATION SUMMARY FOR THE INCREMENT:   1 TOTAL ITERATIONS, OF WHICH
   0 ARE SEVERE DISCONTINUITY ITERATIONS AND  1 ARE EQUILIBRIUM ITERATIONS.

 TIME INCREMENT COMPLETED  4.410E-06,  FRACTION OF STEP COMPLETED  4.192E-05
 STEP TIME COMPLETED       4.192E-05,  TOTAL TIME COMPLETED        4.192E-05


  INCREMENT     7 STARTS. ATTEMPT NUMBER  1, TIME INCREMENT  4.410E-06
 
	SYMMETRIC DIRECT SPARSE SOLVER RUNNING ON
 	1 HOST:        1 MPI RANK  x 2 THREADS
 	NUMBER OF EQUATIONS:     2772
 	NUMBER OF RHS:           1
 	NUMBER OF FLOPS:         3.476e+07

     CHECK POINT   START OF SOLVER    

     CHECK POINT  END OF SOLVER       

       ELAPSED USER TIME (SEC)      =   0.0000    
       ELAPSED SYSTEM TIME (SEC)    =   0.0000    
       ELAPSED TOTAL CPU TIME (SEC) =   0.0000    
       ELAPSED WALLCLOCK TIME (SEC) =          0

               CONVERGENCE CHECKS FOR EQUILIBRIUM ITERATION     1


 AVERAGE FORCE                      1.945E-02   TIME AVG. FORCE       1.618E-02
 LARGEST RESIDUAL FORCE             9.270E-15   AT NODE         56   DOF  1
   INSTANCE: PART-1-1                                                                        
 LARGEST INCREMENT OF DISP.        -3.528E-04   AT NODE         11   DOF  3
   INSTANCE: PART-1-2                                                                        
 LARGEST CORRECTION TO DISP.       -3.066E-05   AT NODE         52   DOF  1
   INSTANCE: PART-1-2                                                                        
          THE FORCE     EQUILIBRIUM RESPONSE WAS LINEAR IN THIS INCREMENT

 AVERAGE MOMENT                     5.033E-04   TIME AVG. MOMENT      3.527E-04
 LARGEST RESIDUAL MOMENT            6.819E-16   AT NODE         66   DOF  5
   INSTANCE: PART-1-2                                                                        
 LARGEST INCREMENT OF ROTATION      5.271E-05   AT NODE         11   DOF  5
   INSTANCE: PART-2-1                                                                        
 LARGEST CORRECTION TO ROTATION     4.298E-05   AT NODE         55   DOF  5
   INSTANCE: PART-1-2                                                                        
          THE MOMENT    EQUILIBRIUM RESPONSE WAS LINEAR IN THIS INCREMENT

  MAXIMUM HALF-INCREMENT FORCE RESIDUAL IS  -5.416E-02 AND OCCURS AT NODE         32 INSTANCE PART-1-3                                                                        
  MAXIMUM HALF-INCREMENT MOMENT RESIDUAL IS   0.272     AND OCCURS AT NODE         54 INSTANCE PART-1-2                                                                        

 ITERATION SUMMARY FOR THE INCREMENT:   1 TOTAL ITERATIONS, OF WHICH
   0 ARE SEVERE DISCONTINUITY ITERATIONS AND  1 ARE EQUILIBRIUM ITERATIONS.

 TIME INCREMENT COMPLETED  4.410E-06,  FRACTION OF STEP COMPLETED  4.633E-05
 STEP TIME COMPLETED       4.633E-05,  TOTAL TIME COMPLETED        4.633E-05


  INCREMENT     8 STARTS. ATTEMPT NUMBER  1, TIME INCREMENT  4.410E-06
 
	SYMMETRIC DIRECT SPARSE SOLVER RUNNING ON
 	1 HOST:        1 MPI RANK  x 2 THREADS
 	NUMBER OF EQUATIONS:     2772
 	NUMBER OF RHS:           1
 	NUMBER OF FLOPS:         3.476e+07

     CHECK POINT   START OF SOLVER    

     CHECK POINT  END OF SOLVER       

       ELAPSED USER TIME (SEC)      =   0.0000    
       ELAPSED SYSTEM TIME (SEC)    =   0.0000    
       ELAPSED TOTAL CPU TIME (SEC) =   0.0000    
       ELAPSED WALLCLOCK TIME (SEC) =          0

               CONVERGENCE CHECKS FOR EQUILIBRIUM ITERATION     1


 AVERAGE FORCE                      1.894E-02   TIME AVG. FORCE       1.653E-02
 LARGEST RESIDUAL FORCE             3.664E-15   AT NODE         56   DOF  1
   INSTANCE: PART-1-1                                                                        
 LARGEST INCREMENT OF DISP.        -3.528E-04   AT NODE         11   DOF  3
   INSTANCE: PART-1-2                                                                        
 LARGEST CORRECTION TO DISP.       -2.763E-05   AT NODE         62   DOF  1
   INSTANCE: PART-1-2                                                                        
          THE FORCE     EQUILIBRIUM RESPONSE WAS LINEAR IN THIS INCREMENT

 AVERAGE MOMENT                     4.835E-04   TIME AVG. MOMENT      3.690E-04
 LARGEST RESIDUAL MOMENT            1.162E-15   AT NODE         21   DOF  5
   INSTANCE: PART-1-3                                                                        
 LARGEST INCREMENT OF ROTATION      7.828E-05   AT NODE         11   DOF  5
   INSTANCE: PART-2-1                                                                        
 LARGEST CORRECTION TO ROTATION     2.964E-05   AT NODE         11   DOF  5
   INSTANCE: PART-1-3                                                                        
          THE MOMENT    EQUILIBRIUM RESPONSE WAS LINEAR IN THIS INCREMENT

  MAXIMUM HALF-INCREMENT FORCE RESIDUAL IS   4.311E-02 AND OCCURS AT NODE         21 INSTANCE PART-1-3                                                                        
  MAXIMUM HALF-INCREMENT MOMENT RESIDUAL IS  -0.266     AND OCCURS AT NODE         32 INSTANCE PART-1-2                                                                        

 ITERATION SUMMARY FOR THE INCREMENT:   1 TOTAL ITERATIONS, OF WHICH
   0 ARE SEVERE DISCONTINUITY ITERATIONS AND  1 ARE EQUILIBRIUM ITERATIONS.

 TIME INCREMENT COMPLETED  4.410E-06,  FRACTION OF STEP COMPLETED  5.074E-05
 STEP TIME COMPLETED       5.074E-05,  TOTAL TIME COMPLETED        5.074E-05


  INCREMENT     9 STARTS. ATTEMPT NUMBER  1, TIME INCREMENT  4.410E-06
 
	SYMMETRIC DIRECT SPARSE SOLVER RUNNING ON
 	1 HOST:        1 MPI RANK  x 2 THREADS
 	NUMBER OF EQUATIONS:     2772
 	NUMBER OF RHS:           1
 	NUMBER OF FLOPS:         3.476e+07

     CHECK POINT   START OF SOLVER    

     CHECK POINT  END OF SOLVER       

       ELAPSED USER TIME (SEC)      =  0.10000    
       ELAPSED SYSTEM TIME (SEC)    =   0.0000    
       ELAPSED TOTAL CPU TIME (SEC) =  0.10000    
       ELAPSED WALLCLOCK TIME (SEC) =          0

               CONVERGENCE CHECKS FOR EQUILIBRIUM ITERATION     1


 AVERAGE FORCE                      1.759E-02   TIME AVG. FORCE       1.665E-02
 LARGEST RESIDUAL FORCE            -3.053E-15   AT NODE         66   DOF  1
   INSTANCE: PART-2-1                                                                        
 LARGEST INCREMENT OF DISP.        -3.528E-04   AT NODE         11   DOF  3
   INSTANCE: PART-1-2                                                                        
 LARGEST CORRECTION TO DISP.       -2.648E-05   AT NODE          7   DOF  1
   INSTANCE: PART-1-2                                                                        
          THE FORCE     EQUILIBRIUM RESPONSE WAS LINEAR IN THIS INCREMENT

 AVERAGE MOMENT                     6.829E-04   TIME AVG. MOMENT      4.039E-04
 LARGEST RESIDUAL MOMENT           -9.645E-16   AT NODE         32   DOF  5
   INSTANCE: PART-1-3                                                                        
 LARGEST INCREMENT OF ROTATION      1.079E-04   AT NODE         11   DOF  5
   INSTANCE: PART-2-1                                                                        
 LARGEST CORRECTION TO ROTATION    -2.288E-05   AT NODE         10   DOF  5
   INSTANCE: PART-1-3                                                                        
          THE MOMENT    EQUILIBRIUM RESPONSE WAS LINEAR IN THIS INCREMENT

  MAXIMUM HALF-INCREMENT FORCE RESIDUAL IS  -3.730E-02 AND OCCURS AT NODE         21 INSTANCE PART-1-2                                                                        
  MAXIMUM HALF-INCREMENT MOMENT RESIDUAL IS   0.250     AND OCCURS AT NODE         32 INSTANCE PART-1-2                                                                        
          TIME INCREMENT MAY NOW INCREASE TO    5.423E-06

 ITERATION SUMMARY FOR THE INCREMENT:   1 TOTAL ITERATIONS, OF WHICH
   0 ARE SEVERE DISCONTINUITY ITERATIONS AND  1 ARE EQUILIBRIUM ITERATIONS.

 TIME INCREMENT COMPLETED  4.410E-06,  FRACTION OF STEP COMPLETED  5.515E-05
 STEP TIME COMPLETED       5.515E-05,  TOTAL TIME COMPLETED        5.515E-05


  INCREMENT    10 STARTS. ATTEMPT NUMBER  1, TIME INCREMENT  5.423E-06
 
	SYMMETRIC DIRECT SPARSE SOLVER RUNNING ON
 	1 HOST:        1 MPI RANK  x 2 THREADS
 	NUMBER OF EQUATIONS:     2772
 	NUMBER OF RHS:           1
 	NUMBER OF FLOPS:         3.476e+07

     CHECK POINT   START OF SOLVER    

     CHECK POINT  END OF SOLVER       

       ELAPSED USER TIME (SEC)      =  0.10000    
       ELAPSED SYSTEM TIME (SEC)    =   0.0000    
       ELAPSED TOTAL CPU TIME (SEC) =  0.10000    
       ELAPSED WALLCLOCK TIME (SEC) =          0

               CONVERGENCE CHECKS FOR EQUILIBRIUM ITERATION     1


 AVERAGE FORCE                      1.512E-02   TIME AVG. FORCE       1.649E-02
 LARGEST RESIDUAL FORCE            -5.169E-15   AT NODE         66   DOF  1
   INSTANCE: PART-2-1                                                                        
 LARGEST INCREMENT OF DISP.        -5.119E-04   AT NODE          1   DOF  3
   INSTANCE: PART-1-3                                                                        
 LARGEST CORRECTION TO DISP.       -4.360E-05   AT NODE          6   DOF  3
   INSTANCE: PART-1-2                                                                        
          THE FORCE     EQUILIBRIUM RESPONSE WAS LINEAR IN THIS INCREMENT

 AVERAGE MOMENT                     6.876E-04   TIME AVG. MOMENT      4.323E-04
 LARGEST RESIDUAL MOMENT           -6.366E-16   AT NODE         87   DOF  5
   INSTANCE: PART-1-3                                                                        
 LARGEST INCREMENT OF ROTATION      1.659E-04   AT NODE         11   DOF  5
   INSTANCE: PART-2-1                                                                        
 LARGEST CORRECTION TO ROTATION    -2.270E-05   AT NODE         65   DOF  5
   INSTANCE: PART-1-2                                                                        
          THE MOMENT    EQUILIBRIUM RESPONSE WAS LINEAR IN THIS INCREMENT

  MAXIMUM HALF-INCREMENT FORCE RESIDUAL IS  -4.465E-02 AND OCCURS AT NODE        108 INSTANCE PART-1-2                                                                        
  MAXIMUM HALF-INCREMENT MOMENT RESIDUAL IS  -0.334     AND OCCURS AT NODE         65 INSTANCE PART-1-2                                                                        

 ITERATION SUMMARY FOR THE INCREMENT:   1 TOTAL ITERATIONS, OF WHICH
   0 ARE SEVERE DISCONTINUITY ITERATIONS AND  1 ARE EQUILIBRIUM ITERATIONS.

 TIME INCREMENT COMPLETED  5.423E-06,  FRACTION OF STEP COMPLETED  6.057E-05
 STEP TIME COMPLETED       6.057E-05,  TOTAL TIME COMPLETED        6.057E-05


  INCREMENT    11 STARTS. ATTEMPT NUMBER  1, TIME INCREMENT  5.423E-06
 
	SYMMETRIC DIRECT SPARSE SOLVER RUNNING ON
 	1 HOST:        1 MPI RANK  x 2 THREADS
 	NUMBER OF EQUATIONS:     2772
 	NUMBER OF RHS:           1
 	NUMBER OF FLOPS:         3.476e+07

     CHECK POINT   START OF SOLVER    

     CHECK POINT  END OF SOLVER       

       ELAPSED USER TIME (SEC)      =   0.0000    
       ELAPSED SYSTEM TIME (SEC)    =   0.0000    
       ELAPSED TOTAL CPU TIME (SEC) =   0.0000    
       ELAPSED WALLCLOCK TIME (SEC) =          0

               CONVERGENCE CHECKS FOR EQUILIBRIUM ITERATION     1


 AVERAGE FORCE                      1.354E-02   TIME AVG. FORCE       1.623E-02
 LARGEST RESIDUAL FORCE             2.206E-15   AT NODE         66   DOF  1
   INSTANCE: PART-2-1                                                                        
 LARGEST INCREMENT OF DISP.        -5.697E-04   AT NODE          1   DOF  3
   INSTANCE: PART-1-3                                                                        
 LARGEST CORRECTION TO DISP.        5.191E-05   AT NODE          1   DOF  3
   INSTANCE: PART-1-3                                                                        
          THE FORCE     EQUILIBRIUM RESPONSE WAS LINEAR IN THIS INCREMENT

 AVERAGE MOMENT                     8.180E-04   TIME AVG. MOMENT      4.673E-04
 LARGEST RESIDUAL MOMENT           -1.078E-15   AT NODE         85   DOF  5
   INSTANCE: PART-1-3                                                                        
 LARGEST INCREMENT OF ROTATION      1.747E-04   AT NODE        121   DOF  5
   INSTANCE: PART-2-1                                                                        
 LARGEST CORRECTION TO ROTATION     2.049E-05   AT NODE          1   DOF  5
   INSTANCE: PART-1-1                                                                        
          THE MOMENT    EQUILIBRIUM RESPONSE WAS LINEAR IN THIS INCREMENT

  MAXIMUM HALF-INCREMENT FORCE RESIDUAL IS  -3.392E-02 AND OCCURS AT NODE         21 INSTANCE PART-1-3                                                                        
  MAXIMUM HALF-INCREMENT MOMENT RESIDUAL IS   0.289     AND OCCURS AT NODE         65 INSTANCE PART-1-2                                                                        
          TIME INCREMENT MAY NOW INCREASE TO    6.539E-06

 ITERATION SUMMARY FOR THE INCREMENT:   1 TOTAL ITERATIONS, OF WHICH
   0 ARE SEVERE DISCONTINUITY ITERATIONS AND  1 ARE EQUILIBRIUM ITERATIONS.

 TIME INCREMENT COMPLETED  5.423E-06,  FRACTION OF STEP COMPLETED  6.600E-05
 STEP TIME COMPLETED       6.600E-05,  TOTAL TIME COMPLETED        6.600E-05


  INCREMENT    12 STARTS. ATTEMPT NUMBER  1, TIME INCREMENT  6.539E-06
 
	SYMMETRIC DIRECT SPARSE SOLVER RUNNING ON
 	1 HOST:        1 MPI RANK  x 2 THREADS
 	NUMBER OF EQUATIONS:     2772
 	NUMBER OF RHS:           1
 	NUMBER OF FLOPS:         3.476e+07

     CHECK POINT   START OF SOLVER    

     CHECK POINT  END OF SOLVER       

       ELAPSED USER TIME (SEC)      =   0.0000    
       ELAPSED SYSTEM TIME (SEC)    =   0.0000    
       ELAPSED TOTAL CPU TIME (SEC) =   0.0000    
       ELAPSED WALLCLOCK TIME (SEC) =          0

               CONVERGENCE CHECKS FOR EQUILIBRIUM ITERATION     1


 AVERAGE FORCE                      1.249E-02   TIME AVG. FORCE       1.591E-02
 LARGEST RESIDUAL FORCE             1.138E-15   AT NODE         56   DOF  1
   INSTANCE: PART-1-1                                                                        
 LARGEST INCREMENT OF DISP.        -6.206E-04   AT NODE        100   DOF  3
   INSTANCE: PART-1-1                                                                        
 LARGEST CORRECTION TO DISP.        9.252E-05   AT NODE        111   DOF  3
   INSTANCE: PART-1-3                                                                        
          THE FORCE     EQUILIBRIUM RESPONSE WAS LINEAR IN THIS INCREMENT

 AVERAGE MOMENT                     8.053E-04   TIME AVG. MOMENT      4.955E-04
 LARGEST RESIDUAL MOMENT            1.370E-15   AT NODE         76   DOF  5
   INSTANCE: PART-1-2                                                                        
 LARGEST INCREMENT OF ROTATION      1.620E-04   AT NODE        121   DOF  5
   INSTANCE: PART-2-1                                                                        
 LARGEST CORRECTION TO ROTATION    -3.328E-05   AT NODE        121   DOF  5
   INSTANCE: PART-2-1                                                                        
          THE MOMENT    EQUILIBRIUM RESPONSE WAS LINEAR IN THIS INCREMENT

  MAXIMUM HALF-INCREMENT FORCE RESIDUAL IS   5.249E-02 AND OCCURS AT NODE        108 INSTANCE PART-1-2                                                                        
  MAXIMUM HALF-INCREMENT MOMENT RESIDUAL IS  -0.351     AND OCCURS AT NODE         65 INSTANCE PART-1-2                                                                        

 ITERATION SUMMARY FOR THE INCREMENT:   1 TOTAL ITERATIONS, OF WHICH
   0 ARE SEVERE DISCONTINUITY ITERATIONS AND  1 ARE EQUILIBRIUM ITERATIONS.

 TIME INCREMENT COMPLETED  6.539E-06,  FRACTION OF STEP COMPLETED  7.254E-05
 STEP TIME COMPLETED       7.254E-05,  TOTAL TIME COMPLETED        7.254E-05


  INCREMENT    13 STARTS. ATTEMPT NUMBER  1, TIME INCREMENT  6.539E-06
 
	SYMMETRIC DIRECT SPARSE SOLVER RUNNING ON
 	1 HOST:        1 MPI RANK  x 2 THREADS
 	NUMBER OF EQUATIONS:     2772
 	NUMBER OF RHS:           1
 	NUMBER OF FLOPS:         3.476e+07

     CHECK POINT   START OF SOLVER    

     CHECK POINT  END OF SOLVER       

       ELAPSED USER TIME (SEC)      =   0.0000    
       ELAPSED SYSTEM TIME (SEC)    =   0.0000    
       ELAPSED TOTAL CPU TIME (SEC) =   0.0000    
       ELAPSED WALLCLOCK TIME (SEC) =          0

               CONVERGENCE CHECKS FOR EQUILIBRIUM ITERATION     1


 AVERAGE FORCE                      8.303E-03   TIME AVG. FORCE       1.533E-02
 LARGEST RESIDUAL FORCE            -1.067E-15   AT NODE         66   DOF  1
   INSTANCE: PART-2-1                                                                        
 LARGEST INCREMENT OF DISP.        -6.267E-04   AT NODE         59   DOF  3
   INSTANCE: PART-1-3                                                                        
 LARGEST CORRECTION TO DISP.        6.722E-05   AT NODE         60   DOF  1
   INSTANCE: PART-1-2                                                                        
          THE FORCE     EQUILIBRIUM RESPONSE WAS LINEAR IN THIS INCREMENT

 AVERAGE MOMENT                     9.031E-04   TIME AVG. MOMENT      5.268E-04
 LARGEST RESIDUAL MOMENT           -1.201E-15   AT NODE         51   DOF  5
   INSTANCE: PART-1-2                                                                        
 LARGEST INCREMENT OF ROTATION      1.063E-04   AT NODE         99   DOF  5
   INSTANCE: PART-2-1                                                                        
 LARGEST CORRECTION TO ROTATION    -2.114E-05   AT NODE         88   DOF  5
   INSTANCE: PART-1-2                                                                        
          THE MOMENT    EQUILIBRIUM RESPONSE WAS LINEAR IN THIS INCREMENT

  MAXIMUM HALF-INCREMENT FORCE RESIDUAL IS  -4.010E-02 AND OCCURS AT NODE         20 INSTANCE PART-1-3                                                                        
  MAXIMUM HALF-INCREMENT MOMENT RESIDUAL IS   0.287     AND OCCURS AT NODE         65 INSTANCE PART-1-2                                                                        
          TIME INCREMENT MAY NOW INCREASE TO    8.174E-06

 ITERATION SUMMARY FOR THE INCREMENT:   1 TOTAL ITERATIONS, OF WHICH
   0 ARE SEVERE DISCONTINUITY ITERATIONS AND  1 ARE EQUILIBRIUM ITERATIONS.

 TIME INCREMENT COMPLETED  6.539E-06,  FRACTION OF STEP COMPLETED  7.908E-05
 STEP TIME COMPLETED       7.908E-05,  TOTAL TIME COMPLETED        7.908E-05


  INCREMENT    14 STARTS. ATTEMPT NUMBER  1, TIME INCREMENT  8.174E-06
 
	SYMMETRIC DIRECT SPARSE SOLVER RUNNING ON
 	1 HOST:        1 MPI RANK  x 2 THREADS
 	NUMBER OF EQUATIONS:     2772
 	NUMBER OF RHS:           1
 	NUMBER OF FLOPS:         3.476e+07

     CHECK POINT   START OF SOLVER    

     CHECK POINT  END OF SOLVER       

       ELAPSED USER TIME (SEC)      =   0.0000    
       ELAPSED SYSTEM TIME (SEC)    =   0.0000    
       ELAPSED TOTAL CPU TIME (SEC) =   0.0000    
       ELAPSED WALLCLOCK TIME (SEC) =          0

               CONVERGENCE CHECKS FOR EQUILIBRIUM ITERATION     1


 AVERAGE FORCE                      6.072E-03   TIME AVG. FORCE       1.467E-02
 LARGEST RESIDUAL FORCE             1.478E-15   AT NODE         56   DOF  1
   INSTANCE: PART-1-1                                                                        
 LARGEST INCREMENT OF DISP.         7.578E-04   AT NODE         58   DOF  1
   INSTANCE: PART-1-3                                                                        
 LARGEST CORRECTION TO DISP.       -1.516E-04   AT NODE        111   DOF  3
   INSTANCE: PART-1-1                                                                        
          THE FORCE     EQUILIBRIUM RESPONSE WAS LINEAR IN THIS INCREMENT

 AVERAGE MOMENT                     9.338E-04   TIME AVG. MOMENT      5.559E-04
 LARGEST RESIDUAL MOMENT            1.360E-15   AT NODE         30   DOF  5
   INSTANCE: PART-1-2                                                                        
 LARGEST INCREMENT OF ROTATION      1.311E-04   AT NODE         55   DOF  5
   INSTANCE: PART-2-1                                                                        
 LARGEST CORRECTION TO ROTATION     6.338E-05   AT NODE         11   DOF  5
   INSTANCE: PART-2-1                                                                        
          THE MOMENT    EQUILIBRIUM RESPONSE WAS LINEAR IN THIS INCREMENT

  MAXIMUM HALF-INCREMENT FORCE RESIDUAL IS  -4.482E-02 AND OCCURS AT NODE        108 INSTANCE PART-1-2                                                                        
  MAXIMUM HALF-INCREMENT MOMENT RESIDUAL IS  -0.356     AND OCCURS AT NODE         65 INSTANCE PART-1-2                                                                        

 ITERATION SUMMARY FOR THE INCREMENT:   1 TOTAL ITERATIONS, OF WHICH
   0 ARE SEVERE DISCONTINUITY ITERATIONS AND  1 ARE EQUILIBRIUM ITERATIONS.

 TIME INCREMENT COMPLETED  8.174E-06,  FRACTION OF STEP COMPLETED  8.725E-05
 STEP TIME COMPLETED       8.725E-05,  TOTAL TIME COMPLETED        8.725E-05


  INCREMENT    15 STARTS. ATTEMPT NUMBER  1, TIME INCREMENT  8.174E-06
 
	SYMMETRIC DIRECT SPARSE SOLVER RUNNING ON
 	1 HOST:        1 MPI RANK  x 2 THREADS
 	NUMBER OF EQUATIONS:     2772
 	NUMBER OF RHS:           1
 	NUMBER OF FLOPS:         3.476e+07

     CHECK POINT   START OF SOLVER    

     CHECK POINT  END OF SOLVER       

       ELAPSED USER TIME (SEC)      =   0.0000    
       ELAPSED SYSTEM TIME (SEC)    =   0.0000    
       ELAPSED TOTAL CPU TIME (SEC) =   0.0000    
       ELAPSED WALLCLOCK TIME (SEC) =          0

               CONVERGENCE CHECKS FOR EQUILIBRIUM ITERATION     1


 AVERAGE FORCE                      7.390E-03   TIME AVG. FORCE       1.418E-02
 LARGEST RESIDUAL FORCE            -7.563E-15   AT NODE         66   DOF  1
   INSTANCE: PART-2-1                                                                        
 LARGEST INCREMENT OF DISP.        -8.468E-04   AT NODE          2   DOF  3
   INSTANCE: {assembly node}                                                                 
 LARGEST CORRECTION TO DISP.       -1.268E-04   AT NODE          1   DOF  3
   INSTANCE: PART-1-3                                                                        
          THE FORCE     EQUILIBRIUM RESPONSE WAS LINEAR IN THIS INCREMENT

 AVERAGE MOMENT                     1.074E-03   TIME AVG. MOMENT      5.904E-04
 LARGEST RESIDUAL MOMENT            1.386E-15   AT NODE         65   DOF  5
   INSTANCE: PART-1-2                                                                        
 LARGEST INCREMENT OF ROTATION     -1.965E-04   AT NODE         56   DOF  5
   INSTANCE: PART-1-1                                                                        
 LARGEST CORRECTION TO ROTATION    -4.621E-05   AT NODE          1   DOF  5
   INSTANCE: PART-1-1                                                                        
          THE MOMENT    EQUILIBRIUM RESPONSE WAS LINEAR IN THIS INCREMENT

  MAXIMUM HALF-INCREMENT FORCE RESIDUAL IS  -4.614E-02 AND OCCURS AT NODE         20 INSTANCE PART-1-3                                                                        
  MAXIMUM HALF-INCREMENT MOMENT RESIDUAL IS   0.273     AND OCCURS AT NODE         43 INSTANCE PART-1-2                                                                        
          TIME INCREMENT MAY NOW INCREASE TO    1.022E-05

 ITERATION SUMMARY FOR THE INCREMENT:   1 TOTAL ITERATIONS, OF WHICH
   0 ARE SEVERE DISCONTINUITY ITERATIONS AND  1 ARE EQUILIBRIUM ITERATIONS.

 TIME INCREMENT COMPLETED  8.174E-06,  FRACTION OF STEP COMPLETED  9.542E-05
 STEP TIME COMPLETED       9.542E-05,  TOTAL TIME COMPLETED        9.542E-05


  INCREMENT    16 STARTS. ATTEMPT NUMBER  1, TIME INCREMENT  1.022E-05
 
	SYMMETRIC DIRECT SPARSE SOLVER RUNNING ON
 	1 HOST:        1 MPI RANK  x 2 THREADS
 	NUMBER OF EQUATIONS:     2772
 	NUMBER OF RHS:           1
 	NUMBER OF FLOPS:         3.476e+07

     CHECK POINT   START OF SOLVER    

     CHECK POINT  END OF SOLVER       

       ELAPSED USER TIME (SEC)      =   0.0000    
       ELAPSED SYSTEM TIME (SEC)    =   0.0000    
       ELAPSED TOTAL CPU TIME (SEC) =   0.0000    
       ELAPSED WALLCLOCK TIME (SEC) =          0

               CONVERGENCE CHECKS FOR EQUILIBRIUM ITERATION     1


 AVERAGE FORCE                      1.219E-02   TIME AVG. FORCE       1.406E-02
 LARGEST RESIDUAL FORCE             1.658E-15   AT NODE         56   DOF  1
   INSTANCE: PART-1-1                                                                        
 LARGEST INCREMENT OF DISP.        -1.069E-03   AT NODE          1   DOF  3
   INSTANCE: {assembly node}                                                                 
 LARGEST CORRECTION TO DISP.        2.699E-04   AT NODE          2   DOF  3
   INSTANCE: {assembly node}                                                                 
          THE FORCE     EQUILIBRIUM RESPONSE WAS LINEAR IN THIS INCREMENT

 AVERAGE MOMENT                     1.215E-03   TIME AVG. MOMENT      6.295E-04
 LARGEST RESIDUAL MOMENT           -1.792E-15   AT NODE         95   DOF  5
   INSTANCE: PART-1-2                                                                        
 LARGEST INCREMENT OF ROTATION      2.192E-04   AT NODE         66   DOF  5
   INSTANCE: PART-2-1                                                                        
 LARGEST CORRECTION TO ROTATION     1.131E-04   AT NODE         56   DOF  5
   INSTANCE: PART-1-1                                                                        
          THE MOMENT    EQUILIBRIUM RESPONSE WAS LINEAR IN THIS INCREMENT

  MAXIMUM HALF-INCREMENT FORCE RESIDUAL IS   6.486E-02 AND OCCURS AT NODE         19 INSTANCE PART-1-3                                                                        
  MAXIMUM HALF-INCREMENT MOMENT RESIDUAL IS  -0.321     AND OCCURS AT NODE         43 INSTANCE PART-1-2                                                                        
          TIME INCREMENT MAY NOW INCREASE TO    1.277E-05

 ITERATION SUMMARY FOR THE INCREMENT:   1 TOTAL ITERATIONS, OF WHICH
   0 ARE SEVERE DISCONTINUITY ITERATIONS AND  1 ARE EQUILIBRIUM ITERATIONS.

 TIME INCREMENT COMPLETED  1.022E-05,  FRACTION OF STEP COMPLETED  1.056E-04
 STEP TIME COMPLETED       1.056E-04,  TOTAL TIME COMPLETED        1.056E-04


  INCREMENT    17 STARTS. ATTEMPT NUMBER  1, TIME INCREMENT  1.277E-05
 
	SYMMETRIC DIRECT SPARSE SOLVER RUNNING ON
 	1 HOST:        1 MPI RANK  x 2 THREADS
 	NUMBER OF EQUATIONS:     2772
 	NUMBER OF RHS:           1
 	NUMBER OF FLOPS:         3.476e+07

     CHECK POINT   START OF SOLVER    

     CHECK POINT  END OF SOLVER       

       ELAPSED USER TIME (SEC)      =  0.10000    
       ELAPSED SYSTEM TIME (SEC)    =   0.0000    
       ELAPSED TOTAL CPU TIME (SEC) =  0.10000    
       ELAPSED WALLCLOCK TIME (SEC) =          0

               CONVERGENCE CHECKS FOR EQUILIBRIUM ITERATION     1


 AVERAGE FORCE                      1.505E-02   TIME AVG. FORCE       1.412E-02
 LARGEST RESIDUAL FORCE            -1.041E-15   AT NODE         50   DOF  3
   INSTANCE: PART-1-3                                                                        
 LARGEST INCREMENT OF DISP.        -1.046E-03   AT NODE         58   DOF  3
   INSTANCE: PART-1-3                                                                        
 LARGEST CORRECTION TO DISP.        1.946E-04   AT NODE         80   DOF  3
   INSTANCE: PART-1-2                                                                        
          THE FORCE     EQUILIBRIUM RESPONSE WAS LINEAR IN THIS INCREMENT

 AVERAGE MOMENT                     1.185E-03   TIME AVG. MOMENT      6.621E-04
 LARGEST RESIDUAL MOMENT            2.419E-15   AT NODE        101   DOF  5
   INSTANCE: PART-1-3                                                                        
 LARGEST INCREMENT OF ROTATION      1.756E-04   AT NODE         54   DOF  5
   INSTANCE: PART-2-1                                                                        
 LARGEST CORRECTION TO ROTATION    -6.412E-05   AT NODE        121   DOF  5
   INSTANCE: PART-2-1                                                                        
          THE MOMENT    EQUILIBRIUM RESPONSE WAS LINEAR IN THIS INCREMENT

  MAXIMUM HALF-INCREMENT FORCE RESIDUAL IS   7.819E-02 AND OCCURS AT NODE         95 INSTANCE PART-1-2                                                                        
  MAXIMUM HALF-INCREMENT MOMENT RESIDUAL IS   0.369     AND OCCURS AT NODE         43 INSTANCE PART-1-2                                                                        
          TIME INCREMENT MAY NOW INCREASE TO    1.596E-05

 ITERATION SUMMARY FOR THE INCREMENT:   1 TOTAL ITERATIONS, OF WHICH
   0 ARE SEVERE DISCONTINUITY ITERATIONS AND  1 ARE EQUILIBRIUM ITERATIONS.

 TIME INCREMENT COMPLETED  1.277E-05,  FRACTION OF STEP COMPLETED  1.184E-04
 STEP TIME COMPLETED       1.184E-04,  TOTAL TIME COMPLETED        1.184E-04


  INCREMENT    18 STARTS. ATTEMPT NUMBER  1, TIME INCREMENT  1.596E-05
 
	SYMMETRIC DIRECT SPARSE SOLVER RUNNING ON
 	1 HOST:        1 MPI RANK  x 2 THREADS
 	NUMBER OF EQUATIONS:     2772
 	NUMBER OF RHS:           1
 	NUMBER OF FLOPS:         3.476e+07

     CHECK POINT   START OF SOLVER    

     CHECK POINT  END OF SOLVER       

       ELAPSED USER TIME (SEC)      =  0.10000    
       ELAPSED SYSTEM TIME (SEC)    =   0.0000    
       ELAPSED TOTAL CPU TIME (SEC) =  0.10000    
       ELAPSED WALLCLOCK TIME (SEC) =          1

               CONVERGENCE CHECKS FOR EQUILIBRIUM ITERATION     1


 AVERAGE FORCE                      1.810E-02   TIME AVG. FORCE       1.434E-02
 LARGEST RESIDUAL FORCE            -4.628E-15   AT NODE         56   DOF  1
   INSTANCE: PART-1-1                                                                        
 LARGEST INCREMENT OF DISP.        -1.277E-03   AT NODE         11   DOF  3
   INSTANCE: PART-1-2                                                                        
 LARGEST CORRECTION TO DISP.        4.169E-04   AT NODE        113   DOF  3
   INSTANCE: PART-1-2                                                                        
          THE FORCE     EQUILIBRIUM RESPONSE WAS LINEAR IN THIS INCREMENT

 AVERAGE MOMENT                     1.224E-03   TIME AVG. MOMENT      6.934E-04
 LARGEST RESIDUAL MOMENT           -2.502E-15   AT NODE         81   DOF  5
   INSTANCE: PART-1-3                                                                        
 LARGEST INCREMENT OF ROTATION      1.684E-04   AT NODE         10   DOF  5
   INSTANCE: PART-2-1                                                                        
 LARGEST CORRECTION TO ROTATION    -1.600E-04   AT NODE         56   DOF  5
   INSTANCE: PART-1-1                                                                        
          THE MOMENT    EQUILIBRIUM RESPONSE WAS LINEAR IN THIS INCREMENT

  MAXIMUM HALF-INCREMENT FORCE RESIDUAL IS  -0.126     AND OCCURS AT NODE        106 INSTANCE PART-1-2                                                                        
  MAXIMUM HALF-INCREMENT MOMENT RESIDUAL IS  -0.413     AND OCCURS AT NODE         43 INSTANCE PART-1-2                                                                        
          TIME INCREMENT MAY NOW INCREASE TO    1.932E-05

 ITERATION SUMMARY FOR THE INCREMENT:   1 TOTAL ITERATIONS, OF WHICH
   0 ARE SEVERE DISCONTINUITY ITERATIONS AND  1 ARE EQUILIBRIUM ITERATIONS.

 TIME INCREMENT COMPLETED  1.596E-05,  FRACTION OF STEP COMPLETED  1.344E-04
 STEP TIME COMPLETED       1.344E-04,  TOTAL TIME COMPLETED        1.344E-04


  INCREMENT    19 STARTS. ATTEMPT NUMBER  1, TIME INCREMENT  1.932E-05
 
	SYMMETRIC DIRECT SPARSE SOLVER RUNNING ON
 	1 HOST:        1 MPI RANK  x 2 THREADS
 	NUMBER OF EQUATIONS:     2772
 	NUMBER OF RHS:           1
 	NUMBER OF FLOPS:         3.476e+07

     CHECK POINT   START OF SOLVER    

     CHECK POINT  END OF SOLVER       

       ELAPSED USER TIME (SEC)      =  0.10000    
       ELAPSED SYSTEM TIME (SEC)    =   0.0000    
       ELAPSED TOTAL CPU TIME (SEC) =  0.10000    
       ELAPSED WALLCLOCK TIME (SEC) =          0

               CONVERGENCE CHECKS FOR EQUILIBRIUM ITERATION     1


 AVERAGE FORCE                      1.434E-02   TIME AVG. FORCE       1.434E-02
 LARGEST RESIDUAL FORCE             1.868E-15   AT NODE         56   DOF  1
   INSTANCE: PART-1-1                                                                        
 LARGEST INCREMENT OF DISP.        -1.546E-03   AT NODE         11   DOF  3
   INSTANCE: PART-1-2                                                                        
 LARGEST CORRECTION TO DISP.        5.044E-04   AT NODE         58   DOF  1
   INSTANCE: PART-1-3                                                                        
          THE FORCE     EQUILIBRIUM RESPONSE WAS LINEAR IN THIS INCREMENT

 AVERAGE MOMENT                     1.335E-03   TIME AVG. MOMENT      7.271E-04
 LARGEST RESIDUAL MOMENT            2.025E-15   AT NODE        120   DOF  6
   INSTANCE: PART-1-2                                                                        
 LARGEST INCREMENT OF ROTATION     -2.409E-04   AT NODE         58   DOF  5
   INSTANCE: PART-1-1                                                                        
 LARGEST CORRECTION TO ROTATION     1.089E-04   AT NODE        111   DOF  5
   INSTANCE: PART-1-1                                                                        
          THE MOMENT    EQUILIBRIUM RESPONSE WAS LINEAR IN THIS INCREMENT

  MAXIMUM HALF-INCREMENT FORCE RESIDUAL IS  -0.119     AND OCCURS AT NODE         47 INSTANCE PART-1-3                                                                        
  MAXIMUM HALF-INCREMENT MOMENT RESIDUAL IS   0.484     AND OCCURS AT NODE         97 INSTANCE PART-1-2                                                                        

 ITERATION SUMMARY FOR THE INCREMENT:   1 TOTAL ITERATIONS, OF WHICH
   0 ARE SEVERE DISCONTINUITY ITERATIONS AND  1 ARE EQUILIBRIUM ITERATIONS.

 TIME INCREMENT COMPLETED  1.932E-05,  FRACTION OF STEP COMPLETED  1.537E-04
 STEP TIME COMPLETED       1.537E-04,  TOTAL TIME COMPLETED        1.537E-04


  INCREMENT    20 STARTS. ATTEMPT NUMBER  1, TIME INCREMENT  1.932E-05
 
	SYMMETRIC DIRECT SPARSE SOLVER RUNNING ON
 	1 HOST:        1 MPI RANK  x 2 THREADS
 	NUMBER OF EQUATIONS:     2772
 	NUMBER OF RHS:           1
 	NUMBER OF FLOPS:         3.476e+07

     CHECK POINT   START OF SOLVER    

     CHECK POINT  END OF SOLVER       

       ELAPSED USER TIME (SEC)      =   0.0000    
       ELAPSED SYSTEM TIME (SEC)    =   0.0000    
       ELAPSED TOTAL CPU TIME (SEC) =   0.0000    
       ELAPSED WALLCLOCK TIME (SEC) =          0

               CONVERGENCE CHECKS FOR EQUILIBRIUM ITERATION     1


 AVERAGE FORCE                      7.185E-03   TIME AVG. FORCE       1.398E-02
 LARGEST RESIDUAL FORCE             7.002E-15   AT NODE         66   DOF  1
   INSTANCE: PART-2-1                                                                        
 LARGEST INCREMENT OF DISP.        -1.546E-03   AT NODE         11   DOF  3
   INSTANCE: PART-1-2                                                                        
 LARGEST CORRECTION TO DISP.        6.563E-04   AT NODE          9   DOF  3
   INSTANCE: PART-1-3                                                                        
          THE FORCE     EQUILIBRIUM RESPONSE WAS LINEAR IN THIS INCREMENT

 AVERAGE MOMENT                     1.372E-03   TIME AVG. MOMENT      7.594E-04
 LARGEST RESIDUAL MOMENT            2.952E-15   AT NODE         91   DOF  5
   INSTANCE: PART-1-2                                                                        
 LARGEST INCREMENT OF ROTATION      3.040E-04   AT NODE         89   DOF  5
   INSTANCE: PART-1-1                                                                        
 LARGEST CORRECTION TO ROTATION    -1.925E-04   AT NODE         23   DOF  5
   INSTANCE: PART-1-1                                                                        
          THE MOMENT    EQUILIBRIUM RESPONSE WAS LINEAR IN THIS INCREMENT

  MAXIMUM HALF-INCREMENT FORCE RESIDUAL IS   0.137     AND OCCURS AT NODE         80 INSTANCE PART-1-2                                                                        
  MAXIMUM HALF-INCREMENT MOMENT RESIDUAL IS  -0.406     AND OCCURS AT NODE         64 INSTANCE PART-1-2                                                                        
          TIME INCREMENT MAY NOW INCREASE TO    2.415E-05

 ITERATION SUMMARY FOR THE INCREMENT:   1 TOTAL ITERATIONS, OF WHICH
   0 ARE SEVERE DISCONTINUITY ITERATIONS AND  1 ARE EQUILIBRIUM ITERATIONS.

 TIME INCREMENT COMPLETED  1.932E-05,  FRACTION OF STEP COMPLETED  1.730E-04
 STEP TIME COMPLETED       1.730E-04,  TOTAL TIME COMPLETED        1.730E-04


  INCREMENT    21 STARTS. ATTEMPT NUMBER  1, TIME INCREMENT  2.415E-05
 
	SYMMETRIC DIRECT SPARSE SOLVER RUNNING ON
 	1 HOST:        1 MPI RANK  x 2 THREADS
 	NUMBER OF EQUATIONS:     2772
 	NUMBER OF RHS:           1
 	NUMBER OF FLOPS:         3.476e+07

     CHECK POINT   START OF SOLVER    

     CHECK POINT  END OF SOLVER       

       ELAPSED USER TIME (SEC)      =  0.10000    
       ELAPSED SYSTEM TIME (SEC)    =   0.0000    
       ELAPSED TOTAL CPU TIME (SEC) =  0.10000    
       ELAPSED WALLCLOCK TIME (SEC) =          0

               CONVERGENCE CHECKS FOR EQUILIBRIUM ITERATION     1


 AVERAGE FORCE                      1.222E-02   TIME AVG. FORCE       1.390E-02
 LARGEST RESIDUAL FORCE             7.903E-15   AT NODE         56   DOF  1
   INSTANCE: PART-1-1                                                                        
 LARGEST INCREMENT OF DISP.        -1.932E-03   AT NODE         11   DOF  3
   INSTANCE: PART-1-2                                                                        
 LARGEST CORRECTION TO DISP.       -1.150E-03   AT NODE        111   DOF  3
   INSTANCE: PART-1-1                                                                        
          THE FORCE     EQUILIBRIUM RESPONSE WAS LINEAR IN THIS INCREMENT

 AVERAGE MOMENT                     1.465E-03   TIME AVG. MOMENT      7.930E-04
 LARGEST RESIDUAL MOMENT           -2.406E-15   AT NODE         90   DOF  6
   INSTANCE: PART-1-1                                                                        
 LARGEST INCREMENT OF ROTATION     -2.266E-04   AT NODE         11   DOF  5
   INSTANCE: PART-2-1                                                                        
 LARGEST CORRECTION TO ROTATION    -3.485E-04   AT NODE        111   DOF  5
   INSTANCE: PART-1-1                                                                        
          THE MOMENT    EQUILIBRIUM RESPONSE WAS LINEAR IN THIS INCREMENT

  MAXIMUM HALF-INCREMENT FORCE RESIDUAL IS   0.228     AND OCCURS AT NODE         60 INSTANCE PART-1-2                                                                        
  MAXIMUM HALF-INCREMENT MOMENT RESIDUAL IS   0.524     AND OCCURS AT NODE         64 INSTANCE PART-1-2                                                                        

 ITERATION SUMMARY FOR THE INCREMENT:   1 TOTAL ITERATIONS, OF WHICH
   0 ARE SEVERE DISCONTINUITY ITERATIONS AND  1 ARE EQUILIBRIUM ITERATIONS.

 TIME INCREMENT COMPLETED  2.415E-05,  FRACTION OF STEP COMPLETED  1.972E-04
 STEP TIME COMPLETED       1.972E-04,  TOTAL TIME COMPLETED        1.972E-04


  INCREMENT    22 STARTS. ATTEMPT NUMBER  1, TIME INCREMENT  2.415E-05
 
	SYMMETRIC DIRECT SPARSE SOLVER RUNNING ON
 	1 HOST:        1 MPI RANK  x 2 THREADS
 	NUMBER OF EQUATIONS:     2772
 	NUMBER OF RHS:           1
 	NUMBER OF FLOPS:         3.476e+07

     CHECK POINT   START OF SOLVER    

     CHECK POINT  END OF SOLVER       

       ELAPSED USER TIME (SEC)      =  0.10000    
       ELAPSED SYSTEM TIME (SEC)    =   0.0000    
       ELAPSED TOTAL CPU TIME (SEC) =  0.10000    
       ELAPSED WALLCLOCK TIME (SEC) =          0

               CONVERGENCE CHECKS FOR EQUILIBRIUM ITERATION     1


 AVERAGE FORCE                      1.583E-02   TIME AVG. FORCE       1.398E-02
 LARGEST RESIDUAL FORCE            -6.833E-15   AT NODE         66   DOF  1
   INSTANCE: PART-2-1                                                                        
 LARGEST INCREMENT OF DISP.        -1.932E-03   AT NODE         11   DOF  3
   INSTANCE: PART-1-2                                                                        
 LARGEST CORRECTION TO DISP.       -8.082E-04   AT NODE         19   DOF  1
   INSTANCE: PART-1-2                                                                        
          THE FORCE     EQUILIBRIUM RESPONSE WAS LINEAR IN THIS INCREMENT

 AVERAGE MOMENT                     1.479E-03   TIME AVG. MOMENT      8.242E-04
 LARGEST RESIDUAL MOMENT            4.616E-15   AT NODE         32   DOF  5
   INSTANCE: PART-1-2                                                                        
 LARGEST INCREMENT OF ROTATION     -2.550E-04   AT NODE         26   DOF  5
   INSTANCE: PART-1-1                                                                        
 LARGEST CORRECTION TO ROTATION    -1.246E-04   AT NODE         19   DOF  5
   INSTANCE: PART-2-1                                                                        
          THE MOMENT    EQUILIBRIUM RESPONSE WAS LINEAR IN THIS INCREMENT

  MAXIMUM HALF-INCREMENT FORCE RESIDUAL IS  -0.187     AND OCCURS AT NODE        107 INSTANCE PART-1-2                                                                        
  MAXIMUM HALF-INCREMENT MOMENT RESIDUAL IS  -0.428     AND OCCURS AT NODE         86 INSTANCE PART-1-2                                                                        
          TIME INCREMENT MAY NOW INCREASE TO    3.019E-05

 ITERATION SUMMARY FOR THE INCREMENT:   1 TOTAL ITERATIONS, OF WHICH
   0 ARE SEVERE DISCONTINUITY ITERATIONS AND  1 ARE EQUILIBRIUM ITERATIONS.

 TIME INCREMENT COMPLETED  2.415E-05,  FRACTION OF STEP COMPLETED  2.213E-04
 STEP TIME COMPLETED       2.213E-04,  TOTAL TIME COMPLETED        2.213E-04


  INCREMENT    23 STARTS. ATTEMPT NUMBER  1, TIME INCREMENT  3.019E-05
 
	SYMMETRIC DIRECT SPARSE SOLVER RUNNING ON
 	1 HOST:        1 MPI RANK  x 2 THREADS
 	NUMBER OF EQUATIONS:     2772
 	NUMBER OF RHS:           1
 	NUMBER OF FLOPS:         3.476e+07

     CHECK POINT   START OF SOLVER    

     CHECK POINT  END OF SOLVER       

       ELAPSED USER TIME (SEC)      =  0.10000    
       ELAPSED SYSTEM TIME (SEC)    =   0.0000    
       ELAPSED TOTAL CPU TIME (SEC) =  0.10000    
       ELAPSED WALLCLOCK TIME (SEC) =          0

               CONVERGENCE CHECKS FOR EQUILIBRIUM ITERATION     1


 AVERAGE FORCE                      1.276E-02   TIME AVG. FORCE       1.393E-02
 LARGEST RESIDUAL FORCE            -5.393E-15   AT NODE         56   DOF  1
   INSTANCE: PART-1-1                                                                        
 LARGEST INCREMENT OF DISP.        -2.415E-03   AT NODE         11   DOF  3
   INSTANCE: PART-1-2                                                                        
 LARGEST CORRECTION TO DISP.        8.786E-04   AT NODE        118   DOF  3
   INSTANCE: PART-1-3                                                                        
          THE FORCE     EQUILIBRIUM RESPONSE WAS LINEAR IN THIS INCREMENT

 AVERAGE MOMENT                     1.548E-03   TIME AVG. MOMENT      8.557E-04
 LARGEST RESIDUAL MOMENT           -3.888E-15   AT NODE         21   DOF  5
   INSTANCE: PART-1-3                                                                        
 LARGEST INCREMENT OF ROTATION      3.884E-04   AT NODE         66   DOF  5
   INSTANCE: PART-2-1                                                                        
 LARGEST CORRECTION TO ROTATION     1.967E-04   AT NODE          1   DOF  5
   INSTANCE: PART-1-1                                                                        
          THE MOMENT    EQUILIBRIUM RESPONSE WAS LINEAR IN THIS INCREMENT

  MAXIMUM HALF-INCREMENT FORCE RESIDUAL IS   0.272     AND OCCURS AT NODE        107 INSTANCE PART-1-2                                                                        
  MAXIMUM HALF-INCREMENT MOMENT RESIDUAL IS   0.541     AND OCCURS AT NODE         86 INSTANCE PART-1-2                                                                        

 ITERATION SUMMARY FOR THE INCREMENT:   1 TOTAL ITERATIONS, OF WHICH
   0 ARE SEVERE DISCONTINUITY ITERATIONS AND  1 ARE EQUILIBRIUM ITERATIONS.

 TIME INCREMENT COMPLETED  3.019E-05,  FRACTION OF STEP COMPLETED  2.515E-04
 STEP TIME COMPLETED       2.515E-04,  TOTAL TIME COMPLETED        2.515E-04


  INCREMENT    24 STARTS. ATTEMPT NUMBER  1, TIME INCREMENT  3.019E-05
 
	SYMMETRIC DIRECT SPARSE SOLVER RUNNING ON
 	1 HOST:        1 MPI RANK  x 2 THREADS
 	NUMBER OF EQUATIONS:     2772
 	NUMBER OF RHS:           1
 	NUMBER OF FLOPS:         3.476e+07

     CHECK POINT   START OF SOLVER    

     CHECK POINT  END OF SOLVER       

       ELAPSED USER TIME (SEC)      =  0.10000    
       ELAPSED SYSTEM TIME (SEC)    =   0.0000    
       ELAPSED TOTAL CPU TIME (SEC) =  0.10000    
       ELAPSED WALLCLOCK TIME (SEC) =          0

               CONVERGENCE CHECKS FOR EQUILIBRIUM ITERATION     1


 AVERAGE FORCE                      5.558E-03   TIME AVG. FORCE       1.358E-02
 LARGEST RESIDUAL FORCE             5.942E-15   AT NODE         66   DOF  1
   INSTANCE: PART-2-1                                                                        
 LARGEST INCREMENT OF DISP.         2.577E-03   AT NODE         57   DOF  1
   INSTANCE: PART-1-3                                                                        
 LARGEST CORRECTION TO DISP.        1.304E-03   AT NODE          5   DOF  3
   INSTANCE: PART-1-2                                                                        
[...]
          TIME INCREMENT MAY NOW INCREASE TO    4.544E-02

 ITERATION SUMMARY FOR THE INCREMENT:   1 TOTAL ITERATIONS, OF WHICH
   0 ARE SEVERE DISCONTINUITY ITERATIONS AND  1 ARE EQUILIBRIUM ITERATIONS.

 TIME INCREMENT COMPLETED  3.635E-02,  FRACTION OF STEP COMPLETED  0.511    
 STEP TIME COMPLETED       0.511    ,  TOTAL TIME COMPLETED         1.51    


  INCREMENT   118 STARTS. ATTEMPT NUMBER  1, TIME INCREMENT  4.544E-02
 
	SYMMETRIC DIRECT SPARSE SOLVER RUNNING ON
 	1 HOST:        1 MPI RANK  x 2 THREADS
 	NUMBER OF EQUATIONS:     2772
 	NUMBER OF RHS:           1
 	NUMBER OF FLOPS:         3.476e+07

     CHECK POINT   START OF SOLVER    

     CHECK POINT  END OF SOLVER       

       ELAPSED USER TIME (SEC)      =  0.10000    
       ELAPSED SYSTEM TIME (SEC)    =   0.0000    
       ELAPSED TOTAL CPU TIME (SEC) =  0.10000    
       ELAPSED WALLCLOCK TIME (SEC) =          0

               CONVERGENCE CHECKS FOR EQUILIBRIUM ITERATION     1


 AVERAGE FORCE                      2.344E-02   TIME AVG. FORCE       0.538    
 LARGEST RESIDUAL FORCE            -1.625E-10   AT NODE         51   DOF  3
   INSTANCE: PART-1-3                                                                        
 LARGEST INCREMENT OF DISP.          7.96       AT NODE          8   DOF  3
   INSTANCE: PART-1-2                                                                        
 LARGEST CORRECTION TO DISP.         202.       AT NODE         22   DOF  3
   INSTANCE: PART-1-2                                                                        
          THE FORCE     EQUILIBRIUM RESPONSE WAS LINEAR IN THIS INCREMENT

 AVERAGE MOMENT                     4.426E-02   TIME AVG. MOMENT      0.556    
 LARGEST RESIDUAL MOMENT           -1.242E-10   AT NODE          6   DOF  4
   INSTANCE: PART-1-3                                                                        
 LARGEST INCREMENT OF ROTATION     -0.222       AT NODE          1   DOF  5
   INSTANCE: PART-1-2                                                                        
 LARGEST CORRECTION TO ROTATION      2.57       AT NODE          5   DOF  5
   INSTANCE: PART-1-1                                                                        
          THE MOMENT    EQUILIBRIUM RESPONSE WAS LINEAR IN THIS INCREMENT

  MAXIMUM HALF-INCREMENT FORCE RESIDUAL IS    198.     AND OCCURS AT NODE         78 INSTANCE PART-1-1                                                                        
  MAXIMUM HALF-INCREMENT MOMENT RESIDUAL IS    12.8     AND OCCURS AT NODE         51 INSTANCE PART-1-3                                                                        
          TIME INCREMENT MAY NOW INCREASE TO    5.680E-02

 ITERATION SUMMARY FOR THE INCREMENT:   1 TOTAL ITERATIONS, OF WHICH
   0 ARE SEVERE DISCONTINUITY ITERATIONS AND  1 ARE EQUILIBRIUM ITERATIONS.

 TIME INCREMENT COMPLETED  4.544E-02,  FRACTION OF STEP COMPLETED  0.556    
 STEP TIME COMPLETED       0.556    ,  TOTAL TIME COMPLETED         1.56    


  INCREMENT   119 STARTS. ATTEMPT NUMBER  1, TIME INCREMENT  5.680E-02
 
	SYMMETRIC DIRECT SPARSE SOLVER RUNNING ON
 	1 HOST:        1 MPI RANK  x 2 THREADS
 	NUMBER OF EQUATIONS:     2772
 	NUMBER OF RHS:           1
 	NUMBER OF FLOPS:         3.476e+07

     CHECK POINT   START OF SOLVER    

     CHECK POINT  END OF SOLVER       

       ELAPSED USER TIME (SEC)      =   0.0000    
       ELAPSED SYSTEM TIME (SEC)    =   0.0000    
       ELAPSED TOTAL CPU TIME (SEC) =   0.0000    
       ELAPSED WALLCLOCK TIME (SEC) =          0

               CONVERGENCE CHECKS FOR EQUILIBRIUM ITERATION     1


 AVERAGE FORCE                      1.254E-02   TIME AVG. FORCE       0.533    
 LARGEST RESIDUAL FORCE            -3.065E-10   AT NODE         39   DOF  1
   INSTANCE: PART-1-2                                                                        
 LARGEST INCREMENT OF DISP.         -4.76       AT NODE          8   DOF  3
   INSTANCE: PART-1-3                                                                        
 LARGEST CORRECTION TO DISP.        -307.       AT NODE         22   DOF  3
   INSTANCE: PART-1-2                                                                        
          THE FORCE     EQUILIBRIUM RESPONSE WAS LINEAR IN THIS INCREMENT

 AVERAGE MOMENT                     2.688E-02   TIME AVG. MOMENT      0.552    
 LARGEST RESIDUAL MOMENT            2.306E-10   AT NODE         72   DOF  5
   INSTANCE: PART-1-3                                                                        
 LARGEST INCREMENT OF ROTATION      0.140       AT NODE          1   DOF  5
   INSTANCE: PART-1-2                                                                        
 LARGEST CORRECTION TO ROTATION      4.24       AT NODE          1   DOF  5
   INSTANCE: PART-1-2                                                                        
          THE MOMENT    EQUILIBRIUM RESPONSE WAS LINEAR IN THIS INCREMENT

  MAXIMUM HALF-INCREMENT FORCE RESIDUAL IS   -199.     AND OCCURS AT NODE         39 INSTANCE PART-1-2                                                                        
  MAXIMUM HALF-INCREMENT MOMENT RESIDUAL IS   -15.0     AND OCCURS AT NODE         90 INSTANCE PART-2-1                                                                        
          TIME INCREMENT MAY NOW INCREASE TO    7.100E-02

 ITERATION SUMMARY FOR THE INCREMENT:   1 TOTAL ITERATIONS, OF WHICH
   0 ARE SEVERE DISCONTINUITY ITERATIONS AND  1 ARE EQUILIBRIUM ITERATIONS.

 TIME INCREMENT COMPLETED  5.680E-02,  FRACTION OF STEP COMPLETED  0.613    
 STEP TIME COMPLETED       0.613    ,  TOTAL TIME COMPLETED         1.61    


  INCREMENT   120 STARTS. ATTEMPT NUMBER  1, TIME INCREMENT  7.100E-02
 
	SYMMETRIC DIRECT SPARSE SOLVER RUNNING ON
 	1 HOST:        1 MPI RANK  x 2 THREADS
 	NUMBER OF EQUATIONS:     2772
 	NUMBER OF RHS:           1
 	NUMBER OF FLOPS:         3.476e+07

     CHECK POINT   START OF SOLVER    

     CHECK POINT  END OF SOLVER       

       ELAPSED USER TIME (SEC)      =  0.10000    
       ELAPSED SYSTEM TIME (SEC)    =  0.10000    
       ELAPSED TOTAL CPU TIME (SEC) =  0.20000    
       ELAPSED WALLCLOCK TIME (SEC) =          0

               CONVERGENCE CHECKS FOR EQUILIBRIUM ITERATION     1


 AVERAGE FORCE                      4.588E-03   TIME AVG. FORCE       0.529    
 LARGEST RESIDUAL FORCE            -3.896E-10   AT NODE         65   DOF  3
   INSTANCE: PART-1-2                                                                        
 LARGEST INCREMENT OF DISP.          2.32       AT NODE          7   DOF  3
   INSTANCE: PART-1-2                                                                        
 LARGEST CORRECTION TO DISP.         420.       AT NODE         22   DOF  3
   INSTANCE: PART-1-2                                                                        
          THE FORCE     EQUILIBRIUM RESPONSE WAS LINEAR IN THIS INCREMENT

 AVERAGE MOMENT                     1.379E-02   TIME AVG. MOMENT      0.547    
 LARGEST RESIDUAL MOMENT            2.922E-10   AT NODE         52   DOF  5
   INSTANCE: PART-1-3                                                                        
 LARGEST INCREMENT OF ROTATION     -7.584E-02   AT NODE          1   DOF  5
   INSTANCE: PART-1-2                                                                        
 LARGEST CORRECTION TO ROTATION     -6.55       AT NODE          1   DOF  5
   INSTANCE: PART-1-2                                                                        
          THE MOMENT    EQUILIBRIUM RESPONSE WAS LINEAR IN THIS INCREMENT

  MAXIMUM HALF-INCREMENT FORCE RESIDUAL IS    221.     AND OCCURS AT NODE         39 INSTANCE PART-1-2                                                                        
  MAXIMUM HALF-INCREMENT MOMENT RESIDUAL IS   -24.2     AND OCCURS AT NODE         98 INSTANCE PART-1-1                                                                        
          TIME INCREMENT MAY NOW INCREASE TO    8.875E-02

 ITERATION SUMMARY FOR THE INCREMENT:   1 TOTAL ITERATIONS, OF WHICH
   0 ARE SEVERE DISCONTINUITY ITERATIONS AND  1 ARE EQUILIBRIUM ITERATIONS.

 TIME INCREMENT COMPLETED  7.100E-02,  FRACTION OF STEP COMPLETED  0.684    
 STEP TIME COMPLETED       0.684    ,  TOTAL TIME COMPLETED         1.68    


  INCREMENT   121 STARTS. ATTEMPT NUMBER  1, TIME INCREMENT  8.875E-02
 
	SYMMETRIC DIRECT SPARSE SOLVER RUNNING ON
 	1 HOST:        1 MPI RANK  x 2 THREADS
 	NUMBER OF EQUATIONS:     2772
 	NUMBER OF RHS:           1
 	NUMBER OF FLOPS:         3.476e+07

     CHECK POINT   START OF SOLVER    

     CHECK POINT  END OF SOLVER       

       ELAPSED USER TIME (SEC)      =   0.0000    
       ELAPSED SYSTEM TIME (SEC)    =   0.0000    
       ELAPSED TOTAL CPU TIME (SEC) =   0.0000    
       ELAPSED WALLCLOCK TIME (SEC) =          0

               CONVERGENCE CHECKS FOR EQUILIBRIUM ITERATION     1


 AVERAGE FORCE                      1.294E-03   TIME AVG. FORCE       0.525    
 LARGEST RESIDUAL FORCE            -9.122E-10   AT NODE         28   DOF  3
   INSTANCE: PART-1-3                                                                        
 LARGEST INCREMENT OF DISP.        -0.599       AT NODE          6   DOF  3
   INSTANCE: PART-1-3                                                                        
 LARGEST CORRECTION TO DISP.        -543.       AT NODE         22   DOF  3
   INSTANCE: PART-1-2                                                                        
          THE FORCE     EQUILIBRIUM RESPONSE WAS LINEAR IN THIS INCREMENT

 AVERAGE MOMENT                     4.731E-03   TIME AVG. MOMENT      0.543    
 LARGEST RESIDUAL MOMENT            4.316E-10   AT NODE         61   DOF  6
   INSTANCE: PART-1-2                                                                        
 LARGEST INCREMENT OF ROTATION      2.932E-02   AT NODE          1   DOF  5
   INSTANCE: PART-1-2                                                                        
 LARGEST CORRECTION TO ROTATION      9.06       AT NODE          1   DOF  5
   INSTANCE: PART-1-2                                                                        
          THE MOMENT    EQUILIBRIUM RESPONSE WAS LINEAR IN THIS INCREMENT

  MAXIMUM HALF-INCREMENT FORCE RESIDUAL IS   -239.     AND OCCURS AT NODE         39 INSTANCE PART-1-2                                                                        
  MAXIMUM HALF-INCREMENT MOMENT RESIDUAL IS   -39.4     AND OCCURS AT NODE         76 INSTANCE PART-1-2                                                                        
          TIME INCREMENT MAY NOW INCREASE TO    0.111    

 ITERATION SUMMARY FOR THE INCREMENT:   1 TOTAL ITERATIONS, OF WHICH
   0 ARE SEVERE DISCONTINUITY ITERATIONS AND  1 ARE EQUILIBRIUM ITERATIONS.

 TIME INCREMENT COMPLETED  8.875E-02,  FRACTION OF STEP COMPLETED  0.773    
 STEP TIME COMPLETED       0.773    ,  TOTAL TIME COMPLETED         1.77    


  INCREMENT   122 STARTS. ATTEMPT NUMBER  1, TIME INCREMENT  0.111    
 
	SYMMETRIC DIRECT SPARSE SOLVER RUNNING ON
 	1 HOST:        1 MPI RANK  x 2 THREADS
 	NUMBER OF EQUATIONS:     2772
 	NUMBER OF RHS:           1
 	NUMBER OF FLOPS:         3.476e+07

     CHECK POINT   START OF SOLVER    

     CHECK POINT  END OF SOLVER       

       ELAPSED USER TIME (SEC)      =  0.10000    
       ELAPSED SYSTEM TIME (SEC)    =   0.0000    
       ELAPSED TOTAL CPU TIME (SEC) =  0.10000    
       ELAPSED WALLCLOCK TIME (SEC) =          0

               CONVERGENCE CHECKS FOR EQUILIBRIUM ITERATION     1


 AVERAGE FORCE                      4.615E-03   TIME AVG. FORCE       0.520    
 LARGEST RESIDUAL FORCE            -6.425E-10   AT NODE         97   DOF  3
   INSTANCE: PART-1-3                                                                        
 LARGEST INCREMENT OF DISP.        -0.799       AT NODE         11   DOF  3
   INSTANCE: PART-1-2                                                                        
 LARGEST CORRECTION TO DISP.         681.       AT NODE         22   DOF  3
   INSTANCE: PART-1-2                                                                        
          THE FORCE     EQUILIBRIUM RESPONSE WAS LINEAR IN THIS INCREMENT

 AVERAGE MOMENT                     2.140E-03   TIME AVG. MOMENT      0.538    
 LARGEST RESIDUAL MOMENT            5.441E-10   AT NODE        105   DOF  5
   INSTANCE: PART-1-3                                                                        
 LARGEST INCREMENT OF ROTATION     -1.238E-02   AT NODE          3   DOF  5
   INSTANCE: PART-1-1                                                                        
 LARGEST CORRECTION TO ROTATION     -11.9       AT NODE          1   DOF  5
   INSTANCE: PART-1-2                                                                        
          THE MOMENT    EQUILIBRIUM RESPONSE WAS LINEAR IN THIS INCREMENT

  MAXIMUM HALF-INCREMENT FORCE RESIDUAL IS    253.     AND OCCURS AT NODE         61 INSTANCE PART-1-2                                                                        
  MAXIMUM HALF-INCREMENT MOMENT RESIDUAL IS    61.6     AND OCCURS AT NODE         76 INSTANCE PART-1-2                                                                        

 ITERATION SUMMARY FOR THE INCREMENT:   1 TOTAL ITERATIONS, OF WHICH
   0 ARE SEVERE DISCONTINUITY ITERATIONS AND  1 ARE EQUILIBRIUM ITERATIONS.

 TIME INCREMENT COMPLETED  0.111    ,  FRACTION OF STEP COMPLETED  0.884    
 STEP TIME COMPLETED       0.884    ,  TOTAL TIME COMPLETED         1.88    


  INCREMENT   123 STARTS. ATTEMPT NUMBER  1, TIME INCREMENT  0.111    
 
	SYMMETRIC DIRECT SPARSE SOLVER RUNNING ON
 	1 HOST:        1 MPI RANK  x 2 THREADS
 	NUMBER OF EQUATIONS:     2772
 	NUMBER OF RHS:           1
 	NUMBER OF FLOPS:         3.476e+07

     CHECK POINT   START OF SOLVER    

     CHECK POINT  END OF SOLVER       

       ELAPSED USER TIME (SEC)      =  0.10000    
       ELAPSED SYSTEM TIME (SEC)    =   0.0000    
       ELAPSED TOTAL CPU TIME (SEC) =  0.10000    
       ELAPSED WALLCLOCK TIME (SEC) =          0

               CONVERGENCE CHECKS FOR EQUILIBRIUM ITERATION     1


 AVERAGE FORCE                      7.398E-03   TIME AVG. FORCE       0.516    
 LARGEST RESIDUAL FORCE             7.320E-10   AT NODE         48   DOF  3
   INSTANCE: PART-1-3                                                                        
 LARGEST INCREMENT OF DISP.          1.57       AT NODE         11   DOF  3
   INSTANCE: PART-1-2                                                                        
 LARGEST CORRECTION TO DISP.        -595.       AT NODE         22   DOF  3
   INSTANCE: PART-1-2                                                                        
          THE FORCE     EQUILIBRIUM RESPONSE WAS LINEAR IN THIS INCREMENT

 AVERAGE MOMENT                     7.086E-03   TIME AVG. MOMENT      0.534    
 LARGEST RESIDUAL MOMENT           -4.064E-10   AT NODE        105   DOF  5
   INSTANCE: PART-1-3                                                                        
 LARGEST INCREMENT OF ROTATION     -2.600E-02   AT NODE          1   DOF  5
   INSTANCE: PART-2-1                                                                        
 LARGEST CORRECTION TO ROTATION      10.8       AT NODE          1   DOF  5
   INSTANCE: PART-1-2                                                                        
          THE MOMENT    EQUILIBRIUM RESPONSE WAS LINEAR IN THIS INCREMENT

  MAXIMUM HALF-INCREMENT FORCE RESIDUAL IS    223.     AND OCCURS AT NODE         45 INSTANCE PART-1-1                                                                        
  MAXIMUM HALF-INCREMENT MOMENT RESIDUAL IS   -61.9     AND OCCURS AT NODE         76 INSTANCE PART-1-2                                                                        

 ITERATION SUMMARY FOR THE INCREMENT:   1 TOTAL ITERATIONS, OF WHICH
   0 ARE SEVERE DISCONTINUITY ITERATIONS AND  1 ARE EQUILIBRIUM ITERATIONS.

 TIME INCREMENT COMPLETED  0.111    ,  FRACTION OF STEP COMPLETED  0.995    
 STEP TIME COMPLETED       0.995    ,  TOTAL TIME COMPLETED         1.99    


  INCREMENT   124 STARTS. ATTEMPT NUMBER  1, TIME INCREMENT  5.373E-03
 
	SYMMETRIC DIRECT SPARSE SOLVER RUNNING ON
 	1 HOST:        1 MPI RANK  x 2 THREADS
 	NUMBER OF EQUATIONS:     2772
 	NUMBER OF RHS:           1
 	NUMBER OF FLOPS:         3.476e+07

     CHECK POINT   START OF SOLVER    

     CHECK POINT  END OF SOLVER       

       ELAPSED USER TIME (SEC)      =   0.0000    
       ELAPSED SYSTEM TIME (SEC)    =   0.0000    
       ELAPSED TOTAL CPU TIME (SEC) =   0.0000    
       ELAPSED WALLCLOCK TIME (SEC) =          0

               CONVERGENCE CHECKS FOR EQUILIBRIUM ITERATION     1


 AVERAGE FORCE                      5.405E-02   TIME AVG. FORCE       0.512    
 LARGEST RESIDUAL FORCE             9.835E-12   AT NODE         65   DOF  3
   INSTANCE: PART-1-2                                                                        
 LARGEST INCREMENT OF DISP.         -6.42       AT NODE          9   DOF  3
   INSTANCE: PART-1-2                                                                        
 LARGEST CORRECTION TO DISP.         8.35       AT NODE         22   DOF  3
   INSTANCE: PART-1-2                                                                        
          THE FORCE     EQUILIBRIUM RESPONSE WAS LINEAR IN THIS INCREMENT

 AVERAGE MOMENT                     0.115       TIME AVG. MOMENT      0.531    
 LARGEST RESIDUAL MOMENT           -8.101E-12   AT NODE         52   DOF  6
   INSTANCE: PART-1-3                                                                        
 LARGEST INCREMENT OF ROTATION      0.145       AT NODE          1   DOF  5
   INSTANCE: PART-2-1                                                                        
 LARGEST CORRECTION TO ROTATION    -0.128       AT NODE          1   DOF  5
   INSTANCE: PART-1-2                                                                        
          THE MOMENT    EQUILIBRIUM RESPONSE WAS LINEAR IN THIS INCREMENT

  MAXIMUM HALF-INCREMENT FORCE RESIDUAL IS   -8.88     AND OCCURS AT NODE         67 INSTANCE PART-1-1                                                                        
  MAXIMUM HALF-INCREMENT MOMENT RESIDUAL IS   0.813     AND OCCURS AT NODE         43 INSTANCE PART-1-2                                                                        

 ITERATION SUMMARY FOR THE INCREMENT:   1 TOTAL ITERATIONS, OF WHICH
   0 ARE SEVERE DISCONTINUITY ITERATIONS AND  1 ARE EQUILIBRIUM ITERATIONS.

 TIME INCREMENT COMPLETED  5.373E-03,  FRACTION OF STEP COMPLETED   1.00    
 STEP TIME COMPLETED        1.00    ,  TOTAL TIME COMPLETED         2.00    


          THE ANALYSIS HAS BEEN COMPLETED



     ANALYSIS SUMMARY:
     TOTAL OF        253  INCREMENTS
                       5  CUTBACKS IN AUTOMATIC INCREMENTATION
                     258  ITERATIONS INCLUDING CONTACT ITERATIONS IF PRESENT
                     262  PASSES THROUGH THE EQUATION SOLVER OF WHICH 
                     262  INVOLVE MATRIX DECOMPOSITION, INCLUDING
                       4  DECOMPOSITION(S) OF THE MASS MATRIX
                       1  REORDERING OF EQUATIONS TO MINIMIZE WAVEFRONT
                       0  ADDITIONAL RESIDUAL EVALUATIONS FOR LINE SEARCHES
                       0  ADDITIONAL OPERATOR EVALUATIONS FOR LINE SEARCHES
                      93  WARNING MESSAGES DURING USER INPUT PROCESSING
                       7  WARNING MESSAGES DURING ANALYSIS
                       0  ANALYSIS WARNINGS ARE NUMERICAL PROBLEM MESSAGES
                       0  ANALYSIS WARNINGS ARE NEGATIVE EIGENVALUE MESSAGES
                       0  ERROR MESSAGES



     JOB TIME SUMMARY
       USER TIME (SEC)      =   38.000    
       SYSTEM TIME (SEC)    =   7.0000    
       TOTAL CPU TIME (SEC) =   45.000    
       WALLCLOCK TIME (SEC) =         38
