1

   Abaqus 2022                                  Date 19-Dez-2023   Time 15:19:40
   For use by MONTANUNIVERSITAT LEOBEN under license from Dassault Systemes or its subsidiary.

                                                                                 
                                                                                 
 STEP    1     INCREMENT     1     STEP TIME    0.00    


                        S T E P       1     D Y N A M I C   A N A L Y S I S - I M P L I C I T  I N T E G R A T I O N


                                                                                          

          DYNAMIC APPLICATION PACKED SCHEME IS                 MODERATE DISSIPATION
          HILBER-HUGHES-TAYLOR (HHT) TIME INTEGRATOR IS USED

     AUTOMATIC TIME CONTROL WITH -
          A SUGGESTED INITIAL TIME INCREMENT OF                0.300    
          AND A TOTAL TIME PERIOD OF                            1.00    
          THE MINIMUM TIME INCREMENT ALLOWED IS                1.000E-10
          THE MAXIMUM TIME INCREMENT ALLOWED IS                0.300    

          THE HALF-INCREMENT RESIDUALS WILL NOT BE CALCULATED

          INITIAL ACCELERATIONS WILL NOT BE CALCULATED

          HILBER-HUGHES-TAYLOR METHOD PARAMETERS:  ALPHA   IS  -0.414214    
                                                   BETA    IS   0.500000    
                                                   GAMMA   IS   0.914214    
          CONTACT IMPACT/RELEASE COMPUTATIONS ARE SKIPPED
          AGGRESSIVE   TIME INCREMENTATION IS USED
          STEP AMPLITUDE IS                                    STEP

 CONVERGENCE TOLERANCE PARAMETERS FOR FORCE    
     CRITERION FOR RESIDUAL FORCE     FOR A NONLINEAR PROBLEM          5.000E-03
     CRITERION FOR DISP.    CORRECTION IN A NONLINEAR PROBLEM          1.000E-02
     INITIAL VALUE OF TIME AVERAGE FORCE                               1.000E-02
     AVERAGE FORCE     IS TIME AVERAGE FORCE    
     ALTERNATE CRIT. FOR RESIDUAL FORCE     FOR A NONLINEAR PROBLEM    2.000E-02
     CRITERION FOR ZERO FORCE     RELATIVE TO TIME AVRG. FORCE         1.000E-05
     CRITERION FOR RESIDUAL FORCE     WHEN THERE IS ZERO FLUX          1.000E-05
     CRITERION FOR DISP.    CORRECTION WHEN THERE IS ZERO FLUX         1.000E-03
     CRITERION FOR RESIDUAL FORCE     FOR A LINEAR INCREMENT           1.000E-08
     FIELD CONVERSION RATIO                                             1.00    
     CRITERION FOR ZERO FORCE     REL. TO TIME AVRG. MAX. FORCE        1.000E-05
     CRITERION FOR ZERO DISP.    RELATIVE TO CHARACTERISTIC LENGTH     1.000E-08

 CONVERGENCE TOLERANCE PARAMETERS FOR MOMENT   
     CRITERION FOR RESIDUAL MOMENT    FOR A NONLINEAR PROBLEM          5.000E-03
     CRITERION FOR ROTATION CORRECTION IN A NONLINEAR PROBLEM          1.000E-02
     INITIAL VALUE OF TIME AVERAGE MOMENT                              1.000E-02
     AVERAGE MOMENT    IS TIME AVERAGE MOMENT   
     ALTERNATE CRIT. FOR RESIDUAL MOMENT    FOR A NONLINEAR PROBLEM    2.000E-02
     CRITERION FOR ZERO MOMENT    RELATIVE TO TIME AVRG. MOMENT        1.000E-05
     CRITERION FOR RESIDUAL MOMENT    WHEN THERE IS ZERO FLUX          1.000E-05
     CRITERION FOR ROTATION CORRECTION WHEN THERE IS ZERO FLUX         1.000E-03
     CRITERION FOR RESIDUAL MOMENT    FOR A LINEAR INCREMENT           1.000E-08
     FIELD CONVERSION RATIO                                             1.00    
     CRITERION FOR ZERO MOMENT    REL. TO TIME AVRG. MAX. MOMENT       1.000E-05

     VOLUMETRIC STRAIN COMPATIBILITY TOLERANCE FOR HYBRID SOLIDS       1.000E-05
     AXIAL STRAIN COMPATIBILITY TOLERANCE FOR HYBRID BEAMS             1.000E-05
     TRANS. SHEAR STRAIN COMPATIBILITY TOLERANCE FOR HYBRID BEAMS      1.000E-05
     SOFT CONTACT CONSTRAINT COMPATIBILITY TOLERANCE FOR P>P0          5.000E-03
     SOFT CONTACT CONSTRAINT COMPATIBILITY TOLERANCE FOR P=0.0         0.100    
     CONTACT FORCE ERROR TOLERANCE FOR CONVERT SDI=YES                 1.00    
     DISPLACEMENT COMPATIBILITY TOLERANCE FOR DCOUP ELEMENTS           1.000E-05
     ROTATION COMPATIBILITY TOLERANCE FOR DCOUP ELEMENTS               1.000E-05

 EQUILIBRIUM WILL BE CHECKED FOR SEVERE DISCONTINUITY ITERATIONS

 TIME INCREMENTATION CONTROL PARAMETERS:
     FIRST EQUILIBRIUM ITERATION FOR CONSECUTIVE DIVERGENCE CHECK              4
     EQUILIBRIUM ITERATION AT WHICH LOG. CONVERGENCE RATE CHECK BEGINS         8
     EQUILIBRIUM ITERATION AFTER WHICH ALTERNATE RESIDUAL IS USED              9
     MAXIMUM EQUILIBRIUM ITERATIONS ALLOWED                                   16
     EQUILIBRIUM ITERATION COUNT FOR CUT-BACK IN NEXT INCREMENT               10
     MAXIMUM EQUILIB. ITERS IN TWO INCREMENTS FOR TIME INCREMENT INCREASE      4
     MAXIMUM ITERATIONS FOR SEVERE DISCONTINUITIES                            50
     MAXIMUM ATTEMPTS ALLOWED IN AN INCREMENT                                  5
     MAXIMUM DISCON. ITERS IN TWO INCREMENTS FOR TIME INCREMENT INCREASE      50
     MAXIMUM CONTACT AUGMENTATIONS FOR *SURFACE BEHAVIOR,AUGMENTED LAGRANGE   50
     CUT-BACK FACTOR AFTER DIVERGENCE                                 0.2500    
     CUT-BACK FACTOR FOR TOO SLOW CONVERGENCE                         0.5000    
     CUT-BACK FACTOR AFTER TOO MANY EQUILIBRIUM ITERATIONS            0.7500    
     CUT-BACK FACTOR AFTER TOO MANY SEVERE DISCONTINUITY ITERATIONS   0.2500    
     CUT-BACK FACTOR AFTER PROBLEMS IN ELEMENT ASSEMBLY               0.2500    
     INCREASE FACTOR AFTER TWO INCREMENTS THAT CONVERGE QUICKLY        1.500    
     MAX. TIME INCREMENT INCREASE FACTOR ALLOWED                       1.500    
     MAX. TIME INCREMENT INCREASE FACTOR ALLOWED (DYNAMICS)            1.250    
     MAX. TIME INCREMENT INCREASE FACTOR ALLOWED (DIFFUSION)           2.000    
     MINIMUM TIME INCREMENT RATIO FOR EXTRAPOLATION TO OCCUR          0.1000    
     MAX. RATIO OF TIME INCREMENT TO STABILITY LIMIT                   1.000    
     FRACTION OF STABILITY LIMIT FOR NEW TIME INCREMENT               0.9500    
     TIME INCREMENT INCREASE FACTOR BEFORE A TIME POINT                1.000    

 CONTACT CONTROLS APPLIED TO ALL CONTACT PAIRS:
     GLOBAL STABILIZATION CONTROL IS NOT USED
     RELATIVE PENETRATION TOLERANCE FOR AUGMENTED LAGRANGE CONTACT:
          FINITE-SLIDING SURFACE-TO-SURFACE                            5.000E-02
          OTHERWISE                                                    1.000E-03

          PRINT OF INCREMENT NUMBER, TIME, ETC., EVERY    1  INCREMENTS

     THE MAXIMUM NUMBER OF INCREMENTS IN THIS STEP IS                   10000

     LINEAR EXTRAPOLATION WILL BE USED

     CHARACTERISTIC ELEMENT LENGTH      6.50    

     DETAILS REGARDING ACTUAL SOLUTION WAVEFRONT REQUESTED

     DETAILED OUTPUT OF DIAGNOSTICS TO DATABASE REQUESTED

     PRINT OF INCREMENT NUMBER, TIME, ETC., TO THE MESSAGE FILE EVERY     1  INCREMENTS

     ELEMENT OPERATIONS WILL BE CARRIED OUT IN PARALLEL USING   2 THREADS ON 1 DOMAIN

     PARALLEL CONTACT TRACKING ENABLED


     COLLECTING MODEL CONSTRAINT INFORMATION FOR OVERCONSTRAINT CHECKS

     COLLECTING STEP CONSTRAINT INFORMATION FOR OVERCONSTRAINT CHECKS

 ***WARNING: AT LEAST ONE OF THE NODES OF CONNECTOR ELEMENT 1 (ASSEMBLY) DOES 
             NOT HAVE ANY MASS ASSOCIATED WITH IT. THIS COULD LEAD TO EQUATION 
             SOLVER ISSUES (ZERO PIVOTS, NUMERICAL SINGULARITIES, etc.) AND 
             HENCE TO INCORRECT SOLUTIONS WHEN THE CONNECTOR ELEMENT IS 
             ENFORCING KINEMATIC CONSTRAINTS (FROM EITHER INTRINSIC, CONNECTOR 
             STOP/LOCK, or CONNECTOR MOTION). PLEASE ATTACH THE CONNECTOR NODES 
             TO ELEMENTS FOR WHICH MASS IS DEFINED (SUCH AS ELEMENTS TYPE MASS 
             WITH A SMALL MASS) TO RESOLVE THE PROBLEM.

 ***WARNING: AT LEAST ONE OF THE NODES OF CONNECTOR ELEMENT 1 (ASSEMBLY) DOES 
             NOT HAVE ANY ROTARY INERTIA ASSOCIATED WITH IT. THIS COULD LEAD TO 
             EQUATION SOLVER ISSUES (ZERO PIVOTS, NUMERICAL SINGULARITIES, 
             etc.) AND HENCE TO INCORRECT SOLUTIONS WHEN THE CONNECTOR ELEMENT 
             IS ENFORCING KINEMATIC CONSTRAINTS (FROM EITHER INTRINSIC, 
             CONNECTOR STOP/LOCK, or CONNECTOR MOTION). PLEASE ATTACH THE 
             CONNECTOR NODES TO ELEMENTS FOR WHICH ROTARY INERTIA IS DEFINED 
             (SUCH AS ELEMENTS TYPE ROTARYI) TO RESOLVE THE PROBLEM.


  INCREMENT     1 STARTS. ATTEMPT NUMBER  1, TIME INCREMENT  0.300    
 
     INITIAL ELEMENT LOAD BALANCE
            DOMAIN    1     THREAD    NUMBER OF ELEMENTS
                              1            318
                              2            339

 ***WARNING: THERE ARE 2 UNCONNECTED REGIONS IN THE MODEL.

 ***NOTE: SFM TYPE SURFACE ELEMENTS USED TO DEFINE CONTACT SURFACES NOT PART OF 
          A RIGID BODY MAY INCREASE THE NUMBER OR UNCONNECTED REGIONS REPORTED.
 
	SYMMETRIC DIRECT SPARSE SOLVER RUNNING ON
 	1 HOST:        1 MPI RANK  x 2 THREADS
 	NUMBER OF EQUATIONS:     2778
 	NUMBER OF RHS:           1
 	NUMBER OF FLOPS:         3.396e+07

     CHECK POINT   START OF SOLVER    

     CHECK POINT  END OF SOLVER       

       ELAPSED USER TIME (SEC)      =  0.10000    
       ELAPSED SYSTEM TIME (SEC)    =  0.10000    
       ELAPSED TOTAL CPU TIME (SEC) =  0.20000    
       ELAPSED WALLCLOCK TIME (SEC) =          0

 ***WARNING: A CONNECTOR TYPE AXIAL IS USED IN A  GEOMETRICALLY LINEAR 
             ANALYSIS. EXTRA CARE MUST BE EXERCISED IN INTERPRETING KINEMATIC 
             OUTPUT VARIABLES (SUCH AS CU, CP, etc.) ASSOCIATED WITH THIS 
             ELEMENT. AS A CONSEQUENCE, CONNECTOR STOPS/LOCKS AND KINETIC 
             BEHAVIOR FOR THIS ELEMENT MAY BE DIFFICULT TO INTERPRET.

                   96 SEVERE DISCONTINUITIES OCCURRED DURING THIS ITERATION.
                   96 POINTS CHANGED FROM OPEN TO CLOSED

               CONVERGENCE CHECKS FOR SEVERE DISCONTINUITY ITERATION     1

   MAX. PENETRATION ERROR 15.4703      AT NODE PART-2-1.113 OF CONTACT PAIR 
   (GENERAL_CONTACT_FACES_2,GENERAL_CONTACT_FACES_1)
   MAX. CONTACT FORCE ERROR 493.791       AT NODE PART-2-1.103 OF CONTACT PAIR 
   (GENERAL_CONTACT_FACES_2,GENERAL_CONTACT_FACES_1)
          PENETRATION ERROR TOO LARGE COMPARED TO DISPLACEMENT INCREMENT.

 AVERAGE FORCE                      0.620       TIME AVG. FORCE       0.620    
 LARGEST RESIDUAL FORCE             -3.70       AT NODE        103   DOF  1
   INSTANCE: PART-2-1                                                                        
 LARGEST INCREMENT OF DISP.         -24.1       AT NODE        114   DOF  3
   INSTANCE: PART-2-1                                                                        
 LARGEST CORRECTION TO DISP.        -24.1       AT NODE        114   DOF  3
   INSTANCE: PART-2-1                                                                        
          FORCE     EQUILIBRIUM NOT ACHIEVED WITHIN TOLERANCE.
 

 ***WARNING: THE AVERAGE FORCE USED TO ENFORCE CONTACT CONSTRAINTS AT NODE 
             PART-2-1.103 IS 10.6959E+03  TIMES LARGER THAN THE AVERAGE AT THE 
             OTHER NODES IN THE MODEL.

 AVERAGE MOMENT                     7.012E-04   TIME AVG. MOMENT      7.012E-04
 LARGEST RESIDUAL MOMENT           -1.376E-11   AT NODE         89   DOF  5
   INSTANCE: PART-1-1                                                                        
 LARGEST INCREMENT OF ROTATION     -1.541E-03   AT NODE        121   DOF  5
   INSTANCE: PART-2-1                                                                        
 LARGEST CORRECTION TO ROTATION    -1.541E-03   AT NODE        121   DOF  5
   INSTANCE: PART-2-1                                                                        
          ROTATION CORRECTION TOO LARGE COMPARED TO ROTATION INCREMENT
 
	SYMMETRIC DIRECT SPARSE SOLVER RUNNING ON
 	1 HOST:        1 MPI RANK  x 2 THREADS
 	NUMBER OF EQUATIONS:     2778
 	NUMBER OF RHS:           1
 	NUMBER OF FLOPS:         4.695e+07

     CHECK POINT   START OF SOLVER    

     CHECK POINT  END OF SOLVER       

       ELAPSED USER TIME (SEC)      =   0.0000    
       ELAPSED SYSTEM TIME (SEC)    =   0.0000    
       ELAPSED TOTAL CPU TIME (SEC) =   0.0000    
       ELAPSED WALLCLOCK TIME (SEC) =          0
 

 ***WARNING: THE SYSTEM MATRIX HAS 1 NEGATIVE EIGENVALUES.

     NEGATIVE EIGENVALUES MEAN THAT THE SYSTEM MATRIX IS NOT 
     POSITIVE DEFINITE:
     FOR EXAMPLE, A BIFURCATION (BUCKLING) LOAD MAY HAVE BEEN EXCEEDED.

 ***WARNING: CONVERGENCE JUDGED UNLIKELY.  INCREMENT WILL BE ATTEMPTED AGAIN 
             WITH A TIME INCREMENT OF 7.50000E-02


  INCREMENT     1 STARTS. ATTEMPT NUMBER  2, TIME INCREMENT  7.500E-02
 
	SYMMETRIC DIRECT SPARSE SOLVER RUNNING ON
 	1 HOST:        1 MPI RANK  x 2 THREADS
 	NUMBER OF EQUATIONS:     2778
 	NUMBER OF RHS:           1
 	NUMBER OF FLOPS:         4.027e+07

     CHECK POINT   START OF SOLVER    

     CHECK POINT  END OF SOLVER       

       ELAPSED USER TIME (SEC)      =   0.0000    
       ELAPSED SYSTEM TIME (SEC)    =   0.0000    
       ELAPSED TOTAL CPU TIME (SEC) =   0.0000    
       ELAPSED WALLCLOCK TIME (SEC) =          0

 ***WARNING: A CONNECTOR TYPE AXIAL IS USED IN A  GEOMETRICALLY LINEAR 
             ANALYSIS. EXTRA CARE MUST BE EXERCISED IN INTERPRETING KINEMATIC 
             OUTPUT VARIABLES (SUCH AS CU, CP, etc.) ASSOCIATED WITH THIS 
             ELEMENT. AS A CONSEQUENCE, CONNECTOR STOPS/LOCKS AND KINETIC 
             BEHAVIOR FOR THIS ELEMENT MAY BE DIFFICULT TO INTERPRET.

                   74 SEVERE DISCONTINUITIES OCCURRED DURING THIS ITERATION.
                   74 POINTS CHANGED FROM OPEN TO CLOSED

               CONVERGENCE CHECKS FOR SEVERE DISCONTINUITY ITERATION     1

   MAX. PENETRATION ERROR 5.06750     AT NODE PART-2-1.111 OF CONTACT PAIR 
   (GENERAL_CONTACT_FACES_2,GENERAL_CONTACT_FACES_1)
   MAX. CONTACT FORCE ERROR 212.159       AT NODE PART-2-1.23 OF CONTACT PAIR 
   (GENERAL_CONTACT_EDGES_2,GENERAL_CONTACT_FACES_1)
          PENETRATION ERROR TOO LARGE COMPARED TO DISPLACEMENT INCREMENT.

 AVERAGE FORCE                      0.237       TIME AVG. FORCE       0.237    
 LARGEST RESIDUAL FORCE              5.99       AT NODE         33   DOF  3
   INSTANCE: PART-1-1                                                                        
 LARGEST INCREMENT OF DISP.         -6.04       AT NODE        114   DOF  3
   INSTANCE: PART-2-1                                                                        
 LARGEST CORRECTION TO DISP.        -6.04       AT NODE        114   DOF  3
   INSTANCE: PART-2-1                                                                        
          FORCE     EQUILIBRIUM NOT ACHIEVED WITHIN TOLERANCE.

 AVERAGE MOMENT                     4.846E-04   TIME AVG. MOMENT      4.846E-04
 LARGEST RESIDUAL MOMENT           -5.325E-12   AT NODE         91   DOF  5
   INSTANCE: PART-1-2                                                                        
 LARGEST INCREMENT OF ROTATION     -1.078E-03   AT NODE        121   DOF  5
   INSTANCE: PART-2-1                                                                        
 LARGEST CORRECTION TO ROTATION    -1.078E-03   AT NODE        121   DOF  5
   INSTANCE: PART-2-1                                                                        
          ROTATION CORRECTION TOO LARGE COMPARED TO ROTATION INCREMENT
 
	SYMMETRIC DIRECT SPARSE SOLVER RUNNING ON
 	1 HOST:        1 MPI RANK  x 2 THREADS
 	NUMBER OF EQUATIONS:     2778
 	NUMBER OF RHS:           1
 	NUMBER OF FLOPS:         3.734e+07

     CHECK POINT   START OF SOLVER    

     CHECK POINT  END OF SOLVER       

       ELAPSED USER TIME (SEC)      =  0.10000    
       ELAPSED SYSTEM TIME (SEC)    =   0.0000    
       ELAPSED TOTAL CPU TIME (SEC) =  0.10000    
       ELAPSED WALLCLOCK TIME (SEC) =          0

                  120 SEVERE DISCONTINUITIES OCCURRED DURING THIS ITERATION.
                   68 POINTS CHANGED FROM OPEN TO CLOSED
                   52 POINTS CHANGED FROM CLOSED TO OPEN

               CONVERGENCE CHECKS FOR SEVERE DISCONTINUITY ITERATION     2

   MAX. PENETRATION ERROR 3.73620     AT NODE PART-2-1.5 OF CONTACT PAIR 
   (GENERAL_CONTACT_FACES_2,GENERAL_CONTACT_FACES_1)
   MAX. CONTACT FORCE ERROR -560.909       AT NODE PART-1-1.10 OF CONTACT PAIR 
   (GENERAL_CONTACT_EDGES_5,GENERAL_CONTACT_FACES_1)
          PENETRATION ERROR TOO LARGE COMPARED TO DISPLACEMENT INCREMENT.

 AVERAGE FORCE                       1.10       TIME AVG. FORCE        1.10    
 LARGEST RESIDUAL FORCE              713.       AT NODE         55   DOF  3
   INSTANCE: PART-1-1                                                                        
 LARGEST INCREMENT OF DISP.         -25.6       AT NODE          6   DOF  3
   INSTANCE: PART-2-1                                                                        
 LARGEST CORRECTION TO DISP.         25.1       AT NODE          6   DOF  1
   INSTANCE: PART-2-1                                                                        
          FORCE     EQUILIBRIUM NOT ACHIEVED WITHIN TOLERANCE.

 AVERAGE MOMENT                      1.44       TIME AVG. MOMENT       1.44    
 LARGEST RESIDUAL MOMENT           -1.278E-11   AT NODE         42   DOF  5
   INSTANCE: PART-2-1                                                                        
 LARGEST INCREMENT OF ROTATION       2.40       AT NODE          3   DOF  5
   INSTANCE: PART-2-1                                                                        
 LARGEST CORRECTION TO ROTATION      2.40       AT NODE          3   DOF  5
   INSTANCE: PART-2-1                                                                        
          THE MOMENT    EQUILIBRIUM EQUATIONS HAVE CONVERGED
 
	SYMMETRIC DIRECT SPARSE SOLVER RUNNING ON
 	1 HOST:        1 MPI RANK  x 2 THREADS
 	NUMBER OF EQUATIONS:     2778
 	NUMBER OF RHS:           1
 	NUMBER OF FLOPS:         4.498e+07

     CHECK POINT   START OF SOLVER    

     CHECK POINT  END OF SOLVER       

       ELAPSED USER TIME (SEC)      =   0.0000    
       ELAPSED SYSTEM TIME (SEC)    =   0.0000    
       ELAPSED TOTAL CPU TIME (SEC) =   0.0000    
       ELAPSED WALLCLOCK TIME (SEC) =          0
 

 ***WARNING: THE SYSTEM MATRIX HAS 4 NEGATIVE EIGENVALUES.
             EXPLANATIONS ARE SUGGESTED AFTER THE FIRST OCCURRENCE OF THIS MESSAGE.

                   72 SEVERE DISCONTINUITIES OCCURRED DURING THIS ITERATION.
                   12 POINTS CHANGED FROM OPEN TO CLOSED
                   60 POINTS CHANGED FROM CLOSED TO OPEN

               CONVERGENCE CHECKS FOR SEVERE DISCONTINUITY ITERATION     3

   MAX. PENETRATION ERROR -944.527E-03   AT NODE PART-2-1.4 OF CONTACT PAIR 
   (GENERAL_CONTACT_FACES_2,GENERAL_CONTACT_FACES_1)
   MAX. CONTACT FORCE ERROR -148.545       AT NODE PART-1-1.66 OF CONTACT PAIR 
   (GENERAL_CONTACT_FACES_5,GENERAL_CONTACT_FACES_1)
          PENETRATION ERROR TOO LARGE COMPARED TO DISPLACEMENT INCREMENT.

 AVERAGE FORCE                      0.832       TIME AVG. FORCE       0.832    
 LARGEST RESIDUAL FORCE              153.       AT NODE         22   DOF  3
   INSTANCE: PART-1-1                                                                        
 LARGEST INCREMENT OF DISP.         -26.4       AT NODE        115   DOF  3
   INSTANCE: PART-1-1                                                                        
 LARGEST CORRECTION TO DISP.        -4.89       AT NODE          5   DOF  1
   INSTANCE: PART-2-1                                                                        
          FORCE     EQUILIBRIUM NOT ACHIEVED WITHIN TOLERANCE.

 AVERAGE MOMENT                      1.14       TIME AVG. MOMENT       1.14    
 LARGEST RESIDUAL MOMENT           -7.119E-12   AT NODE         40   DOF  4
   INSTANCE: PART-2-1                                                                        
 LARGEST INCREMENT OF ROTATION      -1.89       AT NODE        121   DOF  5
   INSTANCE: PART-2-1                                                                        
 LARGEST CORRECTION TO ROTATION      1.37       AT NODE         56   DOF  5
   INSTANCE: PART-2-1                                                                        
          THE MOMENT    EQUILIBRIUM EQUATIONS HAVE CONVERGED
 
	SYMMETRIC DIRECT SPARSE SOLVER RUNNING ON
 	1 HOST:        1 MPI RANK  x 2 THREADS
 	NUMBER OF EQUATIONS:     2778
 	NUMBER OF RHS:           1
 	NUMBER OF FLOPS:         4.240e+07

     CHECK POINT   START OF SOLVER    

     CHECK POINT  END OF SOLVER       

       ELAPSED USER TIME (SEC)      =  0.10000    
       ELAPSED SYSTEM TIME (SEC)    =   0.0000    
       ELAPSED TOTAL CPU TIME (SEC) =  0.10000    
       ELAPSED WALLCLOCK TIME (SEC) =          0
 

 ***WARNING: THE SYSTEM MATRIX HAS 2 NEGATIVE EIGENVALUES.
             EXPLANATIONS ARE SUGGESTED AFTER THE FIRST OCCURRENCE OF THIS MESSAGE.

                   62 SEVERE DISCONTINUITIES OCCURRED DURING THIS ITERATION.
                   42 POINTS CHANGED FROM OPEN TO CLOSED
                   20 POINTS CHANGED FROM CLOSED TO OPEN

               CONVERGENCE CHECKS FOR SEVERE DISCONTINUITY ITERATION     4

   MAX. PENETRATION ERROR 233.366E-03   AT NODE PART-2-1.78 OF CONTACT PAIR 
   (GENERAL_CONTACT_FACES_2,GENERAL_CONTACT_FACES_1)
   MAX. CONTACT FORCE ERROR -98.7653      AT NODE PART-1-1.6 OF CONTACT PAIR 
   (GENERAL_CONTACT_EDGES_5,GENERAL_CONTACT_FACES_1)
          PENETRATION ERROR TOO LARGE COMPARED TO DISPLACEMENT INCREMENT.

 AVERAGE FORCE                      0.191       TIME AVG. FORCE       0.191    
 LARGEST RESIDUAL FORCE             -26.7       AT NODE          4   DOF  2
   INSTANCE: PART-2-1                                                                        
 LARGEST INCREMENT OF DISP.         -23.2       AT NODE        115   DOF  3
   INSTANCE: PART-1-1                                                                        
 LARGEST CORRECTION TO DISP.         4.14       AT NODE          4   DOF  1
   INSTANCE: PART-1-1                                                                        
          FORCE     EQUILIBRIUM NOT ACHIEVED WITHIN TOLERANCE.

 AVERAGE MOMENT                     0.652       TIME AVG. MOMENT      0.652    
 LARGEST RESIDUAL MOMENT            6.490E-12   AT NODE         72   DOF  6
   INSTANCE: PART-2-1                                                                        
 LARGEST INCREMENT OF ROTATION      -1.48       AT NODE         11   DOF  5
   INSTANCE: PART-2-1                                                                        
 LARGEST CORRECTION TO ROTATION      1.25       AT NODE          1   DOF  5
   INSTANCE: PART-2-1                                                                        
          THE MOMENT    EQUILIBRIUM EQUATIONS HAVE CONVERGED
 
	SYMMETRIC DIRECT SPARSE SOLVER RUNNING ON
 	1 HOST:        1 MPI RANK  x 2 THREADS
 	NUMBER OF EQUATIONS:     2778
 	NUMBER OF RHS:           1
 	NUMBER OF FLOPS:         4.484e+07

     CHECK POINT   START OF SOLVER    

     CHECK POINT  END OF SOLVER       

       ELAPSED USER TIME (SEC)      =  0.10000    
       ELAPSED SYSTEM TIME (SEC)    =   0.0000    
       ELAPSED TOTAL CPU TIME (SEC) =  0.10000    
       ELAPSED WALLCLOCK TIME (SEC) =          0
 

 ***WARNING: THE SYSTEM MATRIX HAS 1 NEGATIVE EIGENVALUES.
             EXPLANATIONS ARE SUGGESTED AFTER THE FIRST OCCURRENCE OF THIS MESSAGE.

                   78 SEVERE DISCONTINUITIES OCCURRED DURING THIS ITERATION.
                   42 POINTS CHANGED FROM OPEN TO CLOSED
                   36 POINTS CHANGED FROM CLOSED TO OPEN

               CONVERGENCE CHECKS FOR SEVERE DISCONTINUITY ITERATION     5

   MAX. PENETRATION ERROR 402.733E-03   AT NODE PART-2-1.4 OF CONTACT PAIR 
   (GENERAL_CONTACT_FACES_2,GENERAL_CONTACT_FACES_1)
   MAX. CONTACT FORCE ERROR 20.1754      AT NODE PART-2-1.58 OF CONTACT PAIR 
   (GENERAL_CONTACT_FACES_2,GENERAL_CONTACT_FACES_1)
          PENETRATION ERROR TOO LARGE COMPARED TO DISPLACEMENT INCREMENT.

 AVERAGE FORCE                      7.186E-02   TIME AVG. FORCE       7.186E-02
 LARGEST RESIDUAL FORCE              15.5       AT NODE         66   DOF  3
   INSTANCE: PART-1-1                                                                        
 LARGEST INCREMENT OF DISP.         -21.7       AT NODE        116   DOF  3
   INSTANCE: PART-1-1                                                                        
 LARGEST CORRECTION TO DISP.         4.24       AT NODE         62   DOF  3
   INSTANCE: PART-2-1                                                                        
          FORCE     EQUILIBRIUM NOT ACHIEVED WITHIN TOLERANCE.

 AVERAGE MOMENT                     0.502       TIME AVG. MOMENT      0.502    
 LARGEST RESIDUAL MOMENT            4.812E-12   AT NODE         16   DOF  5
   INSTANCE: PART-1-1                                                                        
 LARGEST INCREMENT OF ROTATION       1.22       AT NODE        111   DOF  5
   INSTANCE: PART-1-1                                                                        
 LARGEST CORRECTION TO ROTATION     0.532       AT NODE         62   DOF  5
   INSTANCE: PART-1-1                                                                        
          THE MOMENT    EQUILIBRIUM EQUATIONS HAVE CONVERGED
 

 ***NOTE: THE SOLUTION APPEARS TO BE DIVERGING. CONVERGENCE IS JUDGED UNLIKELY.


  INCREMENT     1 STARTS. ATTEMPT NUMBER  3, TIME INCREMENT  1.875E-02
 
	SYMMETRIC DIRECT SPARSE SOLVER RUNNING ON
 	1 HOST:        1 MPI RANK  x 2 THREADS
 	NUMBER OF EQUATIONS:     2778
 	NUMBER OF RHS:           1
 	NUMBER OF FLOPS:         3.956e+07

     CHECK POINT   START OF SOLVER    

     CHECK POINT  END OF SOLVER       

       ELAPSED USER TIME (SEC)      =   0.0000    
       ELAPSED SYSTEM TIME (SEC)    =   0.0000    
       ELAPSED TOTAL CPU TIME (SEC) =   0.0000    
       ELAPSED WALLCLOCK TIME (SEC) =          0

 ***WARNING: A CONNECTOR TYPE AXIAL IS USED IN A  GEOMETRICALLY LINEAR 
             ANALYSIS. EXTRA CARE MUST BE EXERCISED IN INTERPRETING KINEMATIC 
             OUTPUT VARIABLES (SUCH AS CU, CP, etc.) ASSOCIATED WITH THIS 
             ELEMENT. AS A CONSEQUENCE, CONNECTOR STOPS/LOCKS AND KINETIC 
             BEHAVIOR FOR THIS ELEMENT MAY BE DIFFICULT TO INTERPRET.

                   22 SEVERE DISCONTINUITIES OCCURRED DURING THIS ITERATION.
                   22 POINTS CHANGED FROM OPEN TO CLOSED

               CONVERGENCE CHECKS FOR SEVERE DISCONTINUITY ITERATION     1

   MAX. PENETRATION ERROR 239.916E-03   AT NODE PART-2-1.56 OF CONTACT PAIR 
   (GENERAL_CONTACT_EDGES_2,GENERAL_CONTACT_FACES_1)
   MAX. CONTACT FORCE ERROR 20.2360      AT NODE PART-2-1.56 OF CONTACT PAIR 
   (GENERAL_CONTACT_EDGES_2,GENERAL_CONTACT_FACES_1)
          PENETRATION ERROR TOO LARGE COMPARED TO DISPLACEMENT INCREMENT.

 AVERAGE FORCE                      1.497E-02   TIME AVG. FORCE       1.497E-02
 LARGEST RESIDUAL FORCE             0.446       AT NODE         66   DOF  3
   INSTANCE: PART-1-1                                                                        
 LARGEST INCREMENT OF DISP.         -1.50       AT NODE         11   DOF  3
   INSTANCE: PART-1-2                                                                        
 LARGEST CORRECTION TO DISP.        -1.50       AT NODE         11   DOF  3
   INSTANCE: PART-1-2                                                                        
          FORCE     EQUILIBRIUM NOT ACHIEVED WITHIN TOLERANCE.

 AVERAGE MOMENT                     3.594E-04   TIME AVG. MOMENT      3.594E-04
 LARGEST RESIDUAL MOMENT           -1.312E-12   AT NODE         90   DOF  5
   INSTANCE: PART-2-1                                                                        
 LARGEST INCREMENT OF ROTATION      7.261E-04   AT NODE         11   DOF  5
   INSTANCE: PART-2-1                                                                        
 LARGEST CORRECTION TO ROTATION     7.261E-04   AT NODE         11   DOF  5
   INSTANCE: PART-2-1                                                                        
          THE MOMENT    EQUILIBRIUM EQUATIONS HAVE CONVERGED
 
	SYMMETRIC DIRECT SPARSE SOLVER RUNNING ON
 	1 HOST:        1 MPI RANK  x 2 THREADS
 	NUMBER OF EQUATIONS:     2778
 	NUMBER OF RHS:           1
 	NUMBER OF FLOPS:         4.064e+07

     CHECK POINT   START OF SOLVER    

     CHECK POINT  END OF SOLVER       

       ELAPSED USER TIME (SEC)      =   0.0000    
       ELAPSED SYSTEM TIME (SEC)    =   0.0000    
       ELAPSED TOTAL CPU TIME (SEC) =   0.0000    
       ELAPSED WALLCLOCK TIME (SEC) =          0

               CONVERGENCE CHECKS FOR EQUILIBRIUM ITERATION     1

   MAX. PENETRATION ERROR 96.5946E-15  AT NODE PART-2-1.78 OF CONTACT PAIR 
   (GENERAL_CONTACT_EDGES_2,GENERAL_CONTACT_FACES_1)
   MAX. CONTACT FORCE ERROR 8.14742E-12 AT NODE PART-2-1.78 OF CONTACT PAIR 
   (GENERAL_CONTACT_EDGES_2,GENERAL_CONTACT_FACES_1)
          THE CONTACT CONSTRAINTS HAVE CONVERGED.

 AVERAGE FORCE                      1.808E-03   TIME AVG. FORCE       1.808E-03
 LARGEST RESIDUAL FORCE             0.445       AT NODE         66   DOF  3
   INSTANCE: PART-1-1                                                                        
 LARGEST INCREMENT OF DISP.         -1.50       AT NODE         11   DOF  3
   INSTANCE: PART-1-2                                                                        
 LARGEST CORRECTION TO DISP.        0.480       AT NODE         99   DOF  3
   INSTANCE: PART-1-1                                                                        
          FORCE     EQUILIBRIUM NOT ACHIEVED WITHIN TOLERANCE.

 AVERAGE MOMENT                     6.978E-04   TIME AVG. MOMENT      6.978E-04
 LARGEST RESIDUAL MOMENT           -4.785E-13   AT NODE         46   DOF  5
   INSTANCE: PART-1-3                                                                        
 LARGEST INCREMENT OF ROTATION      5.728E-03   AT NODE         55   DOF  5
   INSTANCE: PART-2-1                                                                        
 LARGEST CORRECTION TO ROTATION    -5.600E-03   AT NODE         45   DOF  5
   INSTANCE: PART-1-3                                                                        
          THE MOMENT    EQUILIBRIUM RESPONSE WAS LINEAR IN THIS INCREMENT
 
	SYMMETRIC DIRECT SPARSE SOLVER RUNNING ON
 	1 HOST:        1 MPI RANK  x 2 THREADS
 	NUMBER OF EQUATIONS:     2778
 	NUMBER OF RHS:           1
 	NUMBER OF FLOPS:         4.064e+07

     CHECK POINT   START OF SOLVER    

     CHECK POINT  END OF SOLVER       

       ELAPSED USER TIME (SEC)      =   0.0000    
       ELAPSED SYSTEM TIME (SEC)    =   0.0000    
       ELAPSED TOTAL CPU TIME (SEC) =   0.0000    
       ELAPSED WALLCLOCK TIME (SEC) =          0

               CONVERGENCE CHECKS FOR EQUILIBRIUM ITERATION     2

   MAX. PENETRATION ERROR 7.04691E-15 AT NODE PART-2-1.67 OF CONTACT PAIR 
   (GENERAL_CONTACT_EDGES_2,GENERAL_CONTACT_FACES_1)
   MAX. CONTACT FORCE ERROR 594.383E-15   AT NODE PART-2-1.67 OF CONTACT PAIR 
   (GENERAL_CONTACT_EDGES_2,GENERAL_CONTACT_FACES_1)
          THE CONTACT CONSTRAINTS HAVE CONVERGED.

 AVERAGE FORCE                      1.496E-03   TIME AVG. FORCE       1.496E-03
 LARGEST RESIDUAL FORCE            -1.701E-10   AT NODE         99   DOF  3
   INSTANCE: PART-1-1                                                                        
 LARGEST INCREMENT OF DISP.         -1.50       AT NODE         11   DOF  3
   INSTANCE: PART-1-2                                                                        
 LARGEST CORRECTION TO DISP.        4.798E-04   AT NODE         33   DOF  3
   INSTANCE: PART-1-1                                                                        
          THE FORCE     EQUILIBRIUM EQUATIONS HAVE CONVERGED

 AVERAGE MOMENT                     6.982E-04   TIME AVG. MOMENT      6.982E-04
 LARGEST RESIDUAL MOMENT            3.456E-13   AT NODE         64   DOF  5
   INSTANCE: PART-1-2                                                                        
 LARGEST INCREMENT OF ROTATION      5.733E-03   AT NODE         77   DOF  5
   INSTANCE: PART-2-1                                                                        
 LARGEST CORRECTION TO ROTATION    -5.600E-06   AT NODE         67   DOF  5
   INSTANCE: PART-1-3                                                                        
          THE MOMENT    EQUILIBRIUM EQUATIONS HAVE CONVERGED

 ITERATION SUMMARY FOR THE INCREMENT:   3 TOTAL ITERATIONS, OF WHICH
   1 ARE SEVERE DISCONTINUITY ITERATIONS AND  2 ARE EQUILIBRIUM ITERATIONS.

 TIME INCREMENT COMPLETED  1.875E-02,  FRACTION OF STEP COMPLETED  1.875E-02
 STEP TIME COMPLETED       1.875E-02,  TOTAL TIME COMPLETED        1.875E-02


  INCREMENT     2 STARTS. ATTEMPT NUMBER  1, TIME INCREMENT  1.875E-02
 
	SYMMETRIC DIRECT SPARSE SOLVER RUNNING ON
 	1 HOST:        1 MPI RANK  x 2 THREADS
 	NUMBER OF EQUATIONS:     2778
 	NUMBER OF RHS:           1
 	NUMBER OF FLOPS:         4.642e+07

     CHECK POINT   START OF SOLVER    

     CHECK POINT  END OF SOLVER       

       ELAPSED USER TIME (SEC)      =   0.0000    
       ELAPSED SYSTEM TIME (SEC)    =   0.0000    
       ELAPSED TOTAL CPU TIME (SEC) =   0.0000    
       ELAPSED WALLCLOCK TIME (SEC) =          0

               CONVERGENCE CHECKS FOR EQUILIBRIUM ITERATION     1

   MAX. PENETRATION ERROR -950.163E-15   AT NODE PART-2-1.100 OF CONTACT PAIR 
   (GENERAL_CONTACT_EDGES_2,GENERAL_CONTACT_FACES_1)
   MAX. CONTACT FORCE ERROR -80.1430E-12  AT NODE PART-2-1.100 OF CONTACT PAIR 
   (GENERAL_CONTACT_EDGES_2,GENERAL_CONTACT_FACES_1)
          THE CONTACT CONSTRAINTS HAVE CONVERGED.

 AVERAGE FORCE                      2.103E-02   TIME AVG. FORCE       1.126E-02
 LARGEST RESIDUAL FORCE             0.927       AT NODE         77   DOF  3
   INSTANCE: PART-1-1                                                                        
 LARGEST INCREMENT OF DISP.         -1.50       AT NODE         11   DOF  3
   INSTANCE: PART-1-2                                                                        
 LARGEST CORRECTION TO DISP.        0.999       AT NODE         33   DOF  3
   INSTANCE: PART-1-1                                                                        
          FORCE     EQUILIBRIUM NOT ACHIEVED WITHIN TOLERANCE.

 AVERAGE MOMENT                     9.276E-03   TIME AVG. MOMENT      4.987E-03
 LARGEST RESIDUAL MOMENT           -6.821E-13   AT NODE         62   DOF  5
   INSTANCE: PART-1-1                                                                        
 LARGEST INCREMENT OF ROTATION     -2.017E-02   AT NODE        121   DOF  5
   INSTANCE: PART-1-1                                                                        
 LARGEST CORRECTION TO ROTATION     1.497E-02   AT NODE        111   DOF  5
   INSTANCE: PART-2-1                                                                        
          THE MOMENT    EQUILIBRIUM RESPONSE WAS LINEAR IN THIS INCREMENT
 
	SYMMETRIC DIRECT SPARSE SOLVER RUNNING ON
 	1 HOST:        1 MPI RANK  x 2 THREADS
 	NUMBER OF EQUATIONS:     2778
 	NUMBER OF RHS:           1
 	NUMBER OF FLOPS:         4.642e+07

     CHECK POINT   START OF SOLVER    

     CHECK POINT  END OF SOLVER       

       ELAPSED USER TIME (SEC)      =  0.10000    
       ELAPSED SYSTEM TIME (SEC)    =   0.0000    
       ELAPSED TOTAL CPU TIME (SEC) =  0.10000    
       ELAPSED WALLCLOCK TIME (SEC) =          0

               CONVERGENCE CHECKS FOR EQUILIBRIUM ITERATION     2

   MAX. PENETRATION ERROR 16.0070E-15  AT NODE PART-2-1.67 OF CONTACT PAIR 
   (GENERAL_CONTACT_EDGES_2,GENERAL_CONTACT_FACES_1)
   MAX. CONTACT FORCE ERROR 1.35015E-12 AT NODE PART-2-1.67 OF CONTACT PAIR 
   (GENERAL_CONTACT_EDGES_2,GENERAL_CONTACT_FACES_1)
          THE CONTACT CONSTRAINTS HAVE CONVERGED.

 AVERAGE FORCE                      1.895E-02   TIME AVG. FORCE       1.022E-02
 LARGEST RESIDUAL FORCE             8.604E-10   AT NODE         99   DOF  3
   INSTANCE: PART-1-1                                                                        
 LARGEST INCREMENT OF DISP.         -1.50       AT NODE         11   DOF  3
   INSTANCE: PART-1-2                                                                        
 LARGEST CORRECTION TO DISP.        9.990E-04   AT NODE         33   DOF  3
   INSTANCE: PART-1-1                                                                        
          THE FORCE     EQUILIBRIUM EQUATIONS HAVE CONVERGED

 AVERAGE MOMENT                     9.279E-03   TIME AVG. MOMENT      4.989E-03
 LARGEST RESIDUAL MOMENT            5.703E-13   AT NODE         32   DOF  5
   INSTANCE: PART-1-3                                                                        
 LARGEST INCREMENT OF ROTATION     -2.018E-02   AT NODE        121   DOF  5
   INSTANCE: PART-1-1                                                                        
 LARGEST CORRECTION TO ROTATION    -1.166E-05   AT NODE         67   DOF  5
   INSTANCE: PART-1-3                                                                        
          THE MOMENT    EQUILIBRIUM EQUATIONS HAVE CONVERGED
          TIME INCREMENT MAY NOW INCREASE TO    2.812E-02

 ITERATION SUMMARY FOR THE INCREMENT:   2 TOTAL ITERATIONS, OF WHICH
   0 ARE SEVERE DISCONTINUITY ITERATIONS AND  2 ARE EQUILIBRIUM ITERATIONS.

 TIME INCREMENT COMPLETED  1.875E-02,  FRACTION OF STEP COMPLETED  3.750E-02
 STEP TIME COMPLETED       3.750E-02,  TOTAL TIME COMPLETED        3.750E-02


  INCREMENT     3 STARTS. ATTEMPT NUMBER  1, TIME INCREMENT  2.812E-02
 
	SYMMETRIC DIRECT SPARSE SOLVER RUNNING ON
 	1 HOST:        1 MPI RANK  x 2 THREADS
 	NUMBER OF EQUATIONS:     2778
 	NUMBER OF RHS:           1
 	NUMBER OF FLOPS:         4.642e+07

     CHECK POINT   START OF SOLVER    

     CHECK POINT  END OF SOLVER       

       ELAPSED USER TIME (SEC)      =  0.10000    
       ELAPSED SYSTEM TIME (SEC)    =  0.10000    
       ELAPSED TOTAL CPU TIME (SEC) =  0.20000    
       ELAPSED WALLCLOCK TIME (SEC) =          0

               CONVERGENCE CHECKS FOR EQUILIBRIUM ITERATION     1

   MAX. PENETRATION ERROR -43.4755E-15  AT NODE PART-2-1.23 OF CONTACT PAIR 
   (GENERAL_CONTACT_EDGES_2,GENERAL_CONTACT_FACES_1)
   MAX. CONTACT FORCE ERROR -4.12543E-12 AT NODE PART-2-1.23 OF CONTACT PAIR 
   (GENERAL_CONTACT_EDGES_2,GENERAL_CONTACT_FACES_1)
          THE CONTACT CONSTRAINTS HAVE CONVERGED.

 AVERAGE FORCE                      4.420E-02   TIME AVG. FORCE       2.155E-02
 LARGEST RESIDUAL FORCE            -2.133E-07   AT NODE         66   DOF  3
   INSTANCE: PART-1-1                                                                        
 LARGEST INCREMENT OF DISP.         -2.25       AT NODE         11   DOF  3
   INSTANCE: PART-1-2                                                                        
 LARGEST CORRECTION TO DISP.        0.154       AT NODE        116   DOF  3
   INSTANCE: PART-2-1                                                                        
 ESTIMATE OF DISP.    CORRECTION    1.079E-06
 FORCE     EQUILIB. ACCEPTED BASED ON SMALL RESIDUAL AND ESTIMATED CORRECTION

 AVERAGE MOMENT                     1.172E-02   TIME AVG. MOMENT      7.231E-03
 LARGEST RESIDUAL MOMENT            9.971E-13   AT NODE         13   DOF  6
   INSTANCE: PART-1-1                                                                        
 LARGEST INCREMENT OF ROTATION      2.938E-02   AT NODE        121   DOF  5
   INSTANCE: PART-2-1                                                                        
 LARGEST CORRECTION TO ROTATION    -1.078E-02   AT NODE        111   DOF  5
   INSTANCE: PART-2-1                                                                        
          THE MOMENT    EQUILIBRIUM RESPONSE WAS LINEAR IN THIS INCREMENT
          TIME INCREMENT MAY NOW INCREASE TO    4.219E-02

 ITERATION SUMMARY FOR THE INCREMENT:   1 TOTAL ITERATIONS, OF WHICH
   0 ARE SEVERE DISCONTINUITY ITERATIONS AND  1 ARE EQUILIBRIUM ITERATIONS.

 TIME INCREMENT COMPLETED  2.812E-02,  FRACTION OF STEP COMPLETED  6.562E-02
 STEP TIME COMPLETED       6.562E-02,  TOTAL TIME COMPLETED        6.562E-02


  INCREMENT     4 STARTS. ATTEMPT NUMBER  1, TIME INCREMENT  4.219E-02
 
	SYMMETRIC DIRECT SPARSE SOLVER RUNNING ON
 	1 HOST:        1 MPI RANK  x 2 THREADS
 	NUMBER OF EQUATIONS:     2778
 	NUMBER OF RHS:           1
 	NUMBER OF FLOPS:         4.642e+07

     CHECK POINT   START OF SOLVER    

     CHECK POINT  END OF SOLVER       

       ELAPSED USER TIME (SEC)      =   0.0000    
       ELAPSED SYSTEM TIME (SEC)    =   0.0000    
       ELAPSED TOTAL CPU TIME (SEC) =   0.0000    
       ELAPSED WALLCLOCK TIME (SEC) =          1

               CONVERGENCE CHECKS FOR EQUILIBRIUM ITERATION     1

   MAX. PENETRATION ERROR -86.0479E-15  AT NODE PART-2-1.78 OF CONTACT PAIR 
   (GENERAL_CONTACT_EDGES_2,GENERAL_CONTACT_FACES_1)
   MAX. CONTACT FORCE ERROR 7.91632E-12 AT NODE PART-1-1.33 OF CONTACT PAIR 
   (GENERAL_CONTACT_EDGES_5,GENERAL_CONTACT_FACES_1)
          THE CONTACT CONSTRAINTS HAVE CONVERGED.

 AVERAGE FORCE                      9.840E-02   TIME AVG. FORCE       4.076E-02
 LARGEST RESIDUAL FORCE             4.848E-07   AT NODE         66   DOF  3
   INSTANCE: PART-1-1                                                                        
 LARGEST INCREMENT OF DISP.         -3.37       AT NODE         11   DOF  3
   INSTANCE: PART-1-2                                                                        
 LARGEST CORRECTION TO DISP.       -0.165       AT NODE        116   DOF  3
   INSTANCE: PART-2-1                                                                        
 ESTIMATE OF DISP.    CORRECTION   -5.262E-06
 FORCE     EQUILIB. ACCEPTED BASED ON SMALL RESIDUAL AND ESTIMATED CORRECTION

 AVERAGE MOMENT                     2.167E-02   TIME AVG. MOMENT      1.084E-02
 LARGEST RESIDUAL MOMENT           -1.277E-12   AT NODE        108   DOF  4
   INSTANCE: PART-1-2                                                                        
 LARGEST INCREMENT OF ROTATION     -4.142E-02   AT NODE         45   DOF  5
   INSTANCE: PART-1-3                                                                        
 LARGEST CORRECTION TO ROTATION     1.168E-02   AT NODE        111   DOF  5
   INSTANCE: PART-2-1                                                                        
          THE MOMENT    EQUILIBRIUM RESPONSE WAS LINEAR IN THIS INCREMENT
          TIME INCREMENT MAY NOW INCREASE TO    6.328E-02

 ITERATION SUMMARY FOR THE INCREMENT:   1 TOTAL ITERATIONS, OF WHICH
   0 ARE SEVERE DISCONTINUITY ITERATIONS AND  1 ARE EQUILIBRIUM ITERATIONS.

 TIME INCREMENT COMPLETED  4.219E-02,  FRACTION OF STEP COMPLETED  0.108    
 STEP TIME COMPLETED       0.108    ,  TOTAL TIME COMPLETED        0.108    


  INCREMENT     5 STARTS. ATTEMPT NUMBER  1, TIME INCREMENT  6.328E-02
 
	SYMMETRIC DIRECT SPARSE SOLVER RUNNING ON
 	1 HOST:        1 MPI RANK  x 2 THREADS
 	NUMBER OF EQUATIONS:     2778
 	NUMBER OF RHS:           1
 	NUMBER OF FLOPS:         4.642e+07

     CHECK POINT   START OF SOLVER    

     CHECK POINT  END OF SOLVER       

       ELAPSED USER TIME (SEC)      =  0.10000    
       ELAPSED SYSTEM TIME (SEC)    =   0.0000    
       ELAPSED TOTAL CPU TIME (SEC) =  0.10000    
       ELAPSED WALLCLOCK TIME (SEC) =          0

               CONVERGENCE CHECKS FOR EQUILIBRIUM ITERATION     1

   MAX. PENETRATION ERROR 121.725E-15   AT NODE PART-2-1.34 OF CONTACT PAIR 
   (GENERAL_CONTACT_EDGES_2,GENERAL_CONTACT_FACES_1)
   MAX. CONTACT FORCE ERROR 10.2674E-12  AT NODE PART-2-1.34 OF CONTACT PAIR 
   (GENERAL_CONTACT_EDGES_2,GENERAL_CONTACT_FACES_1)
          THE CONTACT CONSTRAINTS HAVE CONVERGED.

 AVERAGE FORCE                      0.164       TIME AVG. FORCE       6.534E-02
 LARGEST RESIDUAL FORCE            -7.076E-07   AT NODE         66   DOF  3
   INSTANCE: PART-1-1                                                                        
 LARGEST INCREMENT OF DISP.         -5.06       AT NODE         11   DOF  3
   INSTANCE: PART-1-2                                                                        
 LARGEST CORRECTION TO DISP.        0.133       AT NODE        116   DOF  3
   INSTANCE: PART-2-1                                                                        
 ESTIMATE OF DISP.    CORRECTION    5.125E-06
 FORCE     EQUILIB. ACCEPTED BASED ON SMALL RESIDUAL AND ESTIMATED CORRECTION

 AVERAGE MOMENT                     3.167E-02   TIME AVG. MOMENT      1.501E-02
 LARGEST RESIDUAL MOMENT            3.106E-12   AT NODE         32   DOF  5
   INSTANCE: PART-1-3                                                                        
 LARGEST INCREMENT OF ROTATION      5.826E-02   AT NODE         77   DOF  5
   INSTANCE: PART-2-1                                                                        
 LARGEST CORRECTION TO ROTATION    -9.437E-03   AT NODE        111   DOF  5
   INSTANCE: PART-2-1                                                                        
          THE MOMENT    EQUILIBRIUM RESPONSE WAS LINEAR IN THIS INCREMENT
          TIME INCREMENT MAY NOW INCREASE TO    9.492E-02

 ITERATION SUMMARY FOR THE INCREMENT:   1 TOTAL ITERATIONS, OF WHICH
   0 ARE SEVERE DISCONTINUITY ITERATIONS AND  1 ARE EQUILIBRIUM ITERATIONS.

 TIME INCREMENT COMPLETED  6.328E-02,  FRACTION OF STEP COMPLETED  0.171    
 STEP TIME COMPLETED       0.171    ,  TOTAL TIME COMPLETED        0.171    


  INCREMENT     6 STARTS. ATTEMPT NUMBER  1, TIME INCREMENT  9.492E-02
 
	SYMMETRIC DIRECT SPARSE SOLVER RUNNING ON
 	1 HOST:        1 MPI RANK  x 2 THREADS
 	NUMBER OF EQUATIONS:     2778
 	NUMBER OF RHS:           1
 	NUMBER OF FLOPS:         4.642e+07

     CHECK POINT   START OF SOLVER    

     CHECK POINT  END OF SOLVER       

       ELAPSED USER TIME (SEC)      =   0.0000    
       ELAPSED SYSTEM TIME (SEC)    =   0.0000    
       ELAPSED TOTAL CPU TIME (SEC) =   0.0000    
       ELAPSED WALLCLOCK TIME (SEC) =          0

               CONVERGENCE CHECKS FOR EQUILIBRIUM ITERATION     1

   MAX. PENETRATION ERROR 1.00811E-12 AT NODE PART-2-1.23 OF CONTACT PAIR 
   (GENERAL_CONTACT_EDGES_2,GENERAL_CONTACT_FACES_1)
   MAX. CONTACT FORCE ERROR 95.6651E-12  AT NODE PART-2-1.23 OF CONTACT PAIR 
   (GENERAL_CONTACT_EDGES_2,GENERAL_CONTACT_FACES_1)
          THE CONTACT CONSTRAINTS HAVE CONVERGED.

 AVERAGE FORCE                      0.347       TIME AVG. FORCE       0.112    
 LARGEST RESIDUAL FORCE             8.553E-07   AT NODE         66   DOF  3
   INSTANCE: PART-1-1                                                                        
 LARGEST INCREMENT OF DISP.         -7.59       AT NODE         11   DOF  3
   INSTANCE: PART-1-2                                                                        
 LARGEST CORRECTION TO DISP.       -9.474E-02   AT NODE        116   DOF  3
   INSTANCE: PART-2-1                                                                        
 ESTIMATE OF DISP.    CORRECTION   -5.101E-06
 FORCE     EQUILIB. ACCEPTED BASED ON SMALL RESIDUAL AND ESTIMATED CORRECTION

 AVERAGE MOMENT                     5.180E-02   TIME AVG. MOMENT      2.114E-02
 LARGEST RESIDUAL MOMENT           -2.749E-12   AT NODE         95   DOF  5
   INSTANCE: PART-1-3                                                                        
 LARGEST INCREMENT OF ROTATION     -8.672E-02   AT NODE         45   DOF  5
   INSTANCE: PART-1-3                                                                        
 LARGEST CORRECTION TO ROTATION     6.730E-03   AT NODE        111   DOF  5
   INSTANCE: PART-2-1                                                                        
          THE MOMENT    EQUILIBRIUM RESPONSE WAS LINEAR IN THIS INCREMENT
          TIME INCREMENT MAY NOW INCREASE TO    0.142    

 ITERATION SUMMARY FOR THE INCREMENT:   1 TOTAL ITERATIONS, OF WHICH
   0 ARE SEVERE DISCONTINUITY ITERATIONS AND  1 ARE EQUILIBRIUM ITERATIONS.

 TIME INCREMENT COMPLETED  9.492E-02,  FRACTION OF STEP COMPLETED  0.266    
 STEP TIME COMPLETED       0.266    ,  TOTAL TIME COMPLETED        0.266    


  INCREMENT     7 STARTS. ATTEMPT NUMBER  1, TIME INCREMENT  0.142    
 
	SYMMETRIC DIRECT SPARSE SOLVER RUNNING ON
 	1 HOST:        1 MPI RANK  x 2 THREADS
 	NUMBER OF EQUATIONS:     2778
 	NUMBER OF RHS:           1
 	NUMBER OF FLOPS:         4.642e+07

     CHECK POINT   START OF SOLVER    

     CHECK POINT  END OF SOLVER       

       ELAPSED USER TIME (SEC)      =  0.10000    
       ELAPSED SYSTEM TIME (SEC)    =   0.0000    
       ELAPSED TOTAL CPU TIME (SEC) =  0.10000    
       ELAPSED WALLCLOCK TIME (SEC) =          0

               CONVERGENCE CHECKS FOR EQUILIBRIUM ITERATION     1

   MAX. PENETRATION ERROR -369.400E-12   AT NODE PART-2-1.78 OF CONTACT PAIR 
   (GENERAL_CONTACT_EDGES_2,GENERAL_CONTACT_FACES_1)
   MAX. CONTACT FORCE ERROR -31.1598E-09  AT NODE PART-2-1.78 OF CONTACT PAIR 
   (GENERAL_CONTACT_EDGES_2,GENERAL_CONTACT_FACES_1)
          THE CONTACT CONSTRAINTS HAVE CONVERGED.

 AVERAGE FORCE                      0.542       TIME AVG. FORCE       0.174    
 LARGEST RESIDUAL FORCE             1.175E-02   AT NODE         22   DOF  3
   INSTANCE: PART-1-1                                                                        
 LARGEST INCREMENT OF DISP.         -11.4       AT NODE         11   DOF  3
   INSTANCE: PART-1-2                                                                        
 LARGEST CORRECTION TO DISP.        6.493E-02   AT NODE          6   DOF  1
   INSTANCE: PART-1-1                                                                        
          FORCE     EQUILIBRIUM NOT ACHIEVED WITHIN TOLERANCE.

 AVERAGE MOMENT                     7.920E-02   TIME AVG. MOMENT      2.943E-02
 LARGEST RESIDUAL MOMENT            5.985E-12   AT NODE         31   DOF  6
   INSTANCE: PART-1-3                                                                        
 LARGEST INCREMENT OF ROTATION      0.126       AT NODE         77   DOF  5
   INSTANCE: PART-2-1                                                                        
 LARGEST CORRECTION TO ROTATION    -4.616E-03   AT NODE        111   DOF  5
   INSTANCE: PART-2-1                                                                        
          THE MOMENT    EQUILIBRIUM RESPONSE WAS LINEAR IN THIS INCREMENT
 
	SYMMETRIC DIRECT SPARSE SOLVER RUNNING ON
 	1 HOST:        1 MPI RANK  x 2 THREADS
 	NUMBER OF EQUATIONS:     2778
 	NUMBER OF RHS:           1
 	NUMBER OF FLOPS:         4.642e+07

     CHECK POINT   START OF SOLVER    

     CHECK POINT  END OF SOLVER       

       ELAPSED USER TIME (SEC)      =   0.0000    
       ELAPSED SYSTEM TIME (SEC)    =   0.0000    
       ELAPSED TOTAL CPU TIME (SEC) =   0.0000    
       ELAPSED WALLCLOCK TIME (SEC) =          0

               CONVERGENCE CHECKS FOR EQUILIBRIUM ITERATION     2

   MAX. PENETRATION ERROR 125.660E-15   AT NODE PART-1-1.110 OF CONTACT PAIR 
   (GENERAL_CONTACT_EDGES_5,GENERAL_CONTACT_FACES_1)
   MAX. CONTACT FORCE ERROR 10.5994E-12  AT NODE PART-1-1.110 OF CONTACT PAIR 
   (GENERAL_CONTACT_EDGES_5,GENERAL_CONTACT_FACES_1)
          THE CONTACT CONSTRAINTS HAVE CONVERGED.

 AVERAGE FORCE                      0.542       TIME AVG. FORCE       0.174    
 LARGEST RESIDUAL FORCE            -5.975E-07   AT NODE        110   DOF  3
   INSTANCE: PART-1-1                                                                        
 LARGEST INCREMENT OF DISP.         -11.4       AT NODE         11   DOF  3
   INSTANCE: PART-1-2                                                                        
 LARGEST CORRECTION TO DISP.        1.431E-05   AT NODE         12   DOF  3
   INSTANCE: PART-2-1                                                                        
          THE FORCE     EQUILIBRIUM EQUATIONS HAVE CONVERGED

 AVERAGE MOMENT                     7.919E-02   TIME AVG. MOMENT      2.943E-02
 LARGEST RESIDUAL MOMENT            5.850E-12   AT NODE         54   DOF  4
   INSTANCE: PART-1-3                                                                        
 LARGEST INCREMENT OF ROTATION      0.126       AT NODE         77   DOF  5
   INSTANCE: PART-2-1                                                                        
 LARGEST CORRECTION TO ROTATION    -2.058E-06   AT NODE        121   DOF  4
   INSTANCE: PART-1-1                                                                        
          THE MOMENT    EQUILIBRIUM EQUATIONS HAVE CONVERGED
          TIME INCREMENT MAY NOW INCREASE TO    0.214    

 ITERATION SUMMARY FOR THE INCREMENT:   2 TOTAL ITERATIONS, OF WHICH
   0 ARE SEVERE DISCONTINUITY ITERATIONS AND  2 ARE EQUILIBRIUM ITERATIONS.

 TIME INCREMENT COMPLETED  0.142    ,  FRACTION OF STEP COMPLETED  0.408    
 STEP TIME COMPLETED       0.408    ,  TOTAL TIME COMPLETED        0.408    


  INCREMENT     8 STARTS. ATTEMPT NUMBER  1, TIME INCREMENT  0.214    
 
	SYMMETRIC DIRECT SPARSE SOLVER RUNNING ON
 	1 HOST:        1 MPI RANK  x 2 THREADS
 	NUMBER OF EQUATIONS:     2778
 	NUMBER OF RHS:           1
 	NUMBER OF FLOPS:         4.642e+07

     CHECK POINT   START OF SOLVER    

     CHECK POINT  END OF SOLVER       

       ELAPSED USER TIME (SEC)      =  0.10000    
       ELAPSED SYSTEM TIME (SEC)    =   0.0000    
       ELAPSED TOTAL CPU TIME (SEC) =  0.10000    
       ELAPSED WALLCLOCK TIME (SEC) =          0

               CONVERGENCE CHECKS FOR EQUILIBRIUM ITERATION     1

   MAX. PENETRATION ERROR 1.00668E-09 AT NODE PART-2-1.34 OF CONTACT PAIR 
   (GENERAL_CONTACT_EDGES_2,GENERAL_CONTACT_FACES_1)
   MAX. CONTACT FORCE ERROR 84.9199E-09  AT NODE PART-2-1.34 OF CONTACT PAIR 
   (GENERAL_CONTACT_EDGES_2,GENERAL_CONTACT_FACES_1)
          THE CONTACT CONSTRAINTS HAVE CONVERGED.

 AVERAGE FORCE                      0.834       TIME AVG. FORCE       0.256    
 LARGEST RESIDUAL FORCE            -3.445E-02   AT NODE         22   DOF  3
   INSTANCE: PART-1-1                                                                        
 LARGEST INCREMENT OF DISP.         -17.1       AT NODE         11   DOF  3
   INSTANCE: PART-1-2                                                                        
 LARGEST CORRECTION TO DISP.       -4.596E-02   AT NODE          6   DOF  3
   INSTANCE: PART-1-1                                                                        
          FORCE     EQUILIBRIUM NOT ACHIEVED WITHIN TOLERANCE.

 AVERAGE MOMENT                     0.123       TIME AVG. MOMENT      4.114E-02
 LARGEST RESIDUAL MOMENT           -8.533E-12   AT NODE         60   DOF  5
   INSTANCE: PART-1-3                                                                        
 LARGEST INCREMENT OF ROTATION     -0.192       AT NODE         45   DOF  5
   INSTANCE: PART-1-3                                                                        
 LARGEST CORRECTION TO ROTATION    -3.140E-03   AT NODE          1   DOF  5
   INSTANCE: PART-1-3                                                                        
          THE MOMENT    EQUILIBRIUM RESPONSE WAS LINEAR IN THIS INCREMENT
 
	SYMMETRIC DIRECT SPARSE SOLVER RUNNING ON
 	1 HOST:        1 MPI RANK  x 2 THREADS
 	NUMBER OF EQUATIONS:     2778
 	NUMBER OF RHS:           1
 	NUMBER OF FLOPS:         4.642e+07

     CHECK POINT   START OF SOLVER    

     CHECK POINT  END OF SOLVER       

       ELAPSED USER TIME (SEC)      =   0.0000    
       ELAPSED SYSTEM TIME (SEC)    =   0.0000    
       ELAPSED TOTAL CPU TIME (SEC) =   0.0000    
       ELAPSED WALLCLOCK TIME (SEC) =          0

               CONVERGENCE CHECKS FOR EQUILIBRIUM ITERATION     2

   MAX. PENETRATION ERROR -3.32705E-12 AT NODE PART-1-1.22 OF CONTACT PAIR 
   (GENERAL_CONTACT_EDGES_5,GENERAL_CONTACT_FACES_1)
   MAX. CONTACT FORCE ERROR -280.642E-12   AT NODE PART-1-1.22 OF CONTACT PAIR 
   (GENERAL_CONTACT_EDGES_5,GENERAL_CONTACT_FACES_1)
          THE CONTACT CONSTRAINTS HAVE CONVERGED.

 AVERAGE FORCE                      0.834       TIME AVG. FORCE       0.256    
 LARGEST RESIDUAL FORCE             1.083E-05   AT NODE        110   DOF  3
   INSTANCE: PART-1-1                                                                        
 LARGEST INCREMENT OF DISP.         -17.1       AT NODE         11   DOF  3
   INSTANCE: PART-1-2                                                                        
 LARGEST CORRECTION TO DISP.       -6.453E-05   AT NODE         22   DOF  3
   INSTANCE: PART-1-1                                                                        
          THE FORCE     EQUILIBRIUM EQUATIONS HAVE CONVERGED

 AVERAGE MOMENT                     0.123       TIME AVG. MOMENT      4.114E-02
 LARGEST RESIDUAL MOMENT           -7.185E-12   AT NODE         46   DOF  5
   INSTANCE: PART-1-1                                                                        
 LARGEST INCREMENT OF ROTATION     -0.192       AT NODE         45   DOF  5
   INSTANCE: PART-1-3                                                                        
 LARGEST CORRECTION TO ROTATION    -6.302E-06   AT NODE         11   DOF  4
   INSTANCE: PART-1-1                                                                        
          THE MOMENT    EQUILIBRIUM EQUATIONS HAVE CONVERGED
          TIME INCREMENT MAY NOW INCREASE TO    0.300    

 ITERATION SUMMARY FOR THE INCREMENT:   2 TOTAL ITERATIONS, OF WHICH
   0 ARE SEVERE DISCONTINUITY ITERATIONS AND  2 ARE EQUILIBRIUM ITERATIONS.

 TIME INCREMENT COMPLETED  0.214    ,  FRACTION OF STEP COMPLETED  0.622    
 STEP TIME COMPLETED       0.622    ,  TOTAL TIME COMPLETED        0.622    


  INCREMENT     9 STARTS. ATTEMPT NUMBER  1, TIME INCREMENT  0.300    
 
	SYMMETRIC DIRECT SPARSE SOLVER RUNNING ON
 	1 HOST:        1 MPI RANK  x 2 THREADS
 	NUMBER OF EQUATIONS:     2778
 	NUMBER OF RHS:           1
 	NUMBER OF FLOPS:         4.642e+07

     CHECK POINT   START OF SOLVER    

     CHECK POINT  END OF SOLVER       

       ELAPSED USER TIME (SEC)      =   0.0000    
       ELAPSED SYSTEM TIME (SEC)    =   0.0000    
       ELAPSED TOTAL CPU TIME (SEC) =   0.0000    
       ELAPSED WALLCLOCK TIME (SEC) =          0

                   22 SEVERE DISCONTINUITIES OCCURRED DURING THIS ITERATION.
                   22 POINTS CHANGED FROM OPEN TO CLOSED

               CONVERGENCE CHECKS FOR SEVERE DISCONTINUITY ITERATION     1

   MAX. PENETRATION ERROR 103.897E-03   AT NODE PART-1-1.66 OF CONTACT PAIR 
   (GENERAL_CONTACT_FACES_5,GENERAL_CONTACT_FACES_1)
   MAX. CONTACT FORCE ERROR 2.79300     AT NODE PART-1-1.66 OF CONTACT PAIR 
   (GENERAL_CONTACT_FACES_5,GENERAL_CONTACT_FACES_1)
          THE ESTIMATED CONTACT FORCE ERROR IS OUTSIDE OF CONVERGENCE TOLERANCES.

 AVERAGE FORCE                       1.15       TIME AVG. FORCE       0.356    
 LARGEST RESIDUAL FORCE             0.157       AT NODE        110   DOF  3
   INSTANCE: PART-1-1                                                                        
 LARGEST INCREMENT OF DISP.         -24.0       AT NODE         11   DOF  3
   INSTANCE: PART-1-2                                                                        
 LARGEST CORRECTION TO DISP.        3.960E-02   AT NODE          6   DOF  1
   INSTANCE: PART-1-1                                                                        
          FORCE     EQUILIBRIUM NOT ACHIEVED WITHIN TOLERANCE.

 AVERAGE MOMENT                     0.187       TIME AVG. MOMENT      5.730E-02
 LARGEST RESIDUAL MOMENT            1.118E-11   AT NODE         72   DOF  5
   INSTANCE: PART-1-3                                                                        
 LARGEST INCREMENT OF ROTATION     -0.267       AT NODE         67   DOF  5
   INSTANCE: PART-1-3                                                                        
 LARGEST CORRECTION TO ROTATION     2.642E-03   AT NODE         22   DOF  5
   INSTANCE: PART-1-1                                                                        
          THE MOMENT    EQUILIBRIUM EQUATIONS HAVE CONVERGED
 
	SYMMETRIC DIRECT SPARSE SOLVER RUNNING ON
 	1 HOST:        1 MPI RANK  x 2 THREADS
 	NUMBER OF EQUATIONS:     2778
 	NUMBER OF RHS:           1
 	NUMBER OF FLOPS:         4.840e+07

     CHECK POINT   START OF SOLVER    

     CHECK POINT  END OF SOLVER       

       ELAPSED USER TIME (SEC)      =   0.0000    
       ELAPSED SYSTEM TIME (SEC)    =   0.0000    
       ELAPSED TOTAL CPU TIME (SEC) =   0.0000    
       ELAPSED WALLCLOCK TIME (SEC) =          0

                    2 SEVERE DISCONTINUITIES OCCURRED DURING THIS ITERATION.
                    2 POINTS CHANGED FROM CLOSED TO OPEN

               CONVERGENCE CHECKS FOR SEVERE DISCONTINUITY ITERATION     2

   MAX. PENETRATION ERROR 6.57829E-03 AT NODE PART-1-1.22 OF CONTACT PAIR 
   (GENERAL_CONTACT_FACES_5,GENERAL_CONTACT_FACES_1)
   MAX. CONTACT FORCE ERROR 170.788E-03   AT NODE PART-1-1.22 OF CONTACT PAIR 
   (GENERAL_CONTACT_FACES_5,GENERAL_CONTACT_FACES_1)
          THE CONTACT CONSTRAINT ERRORS ARE WITHIN THE TOLERANCES.

 AVERAGE FORCE                       1.14       TIME AVG. FORCE       0.354    
 LARGEST RESIDUAL FORCE              3.33       AT NODE         22   DOF  3
   INSTANCE: PART-1-1                                                                        
 LARGEST INCREMENT OF DISP.         -24.0       AT NODE         11   DOF  3
   INSTANCE: PART-1-2                                                                        
 LARGEST CORRECTION TO DISP.        0.862       AT NODE        115   DOF  3
   INSTANCE: PART-2-1                                                                        
          FORCE     EQUILIBRIUM NOT ACHIEVED WITHIN TOLERANCE.

 AVERAGE MOMENT                     0.225       TIME AVG. MOMENT      6.153E-02
 LARGEST RESIDUAL MOMENT           -1.129E-11   AT NODE         97   DOF  4
   INSTANCE: PART-1-2                                                                        
 LARGEST INCREMENT OF ROTATION      0.311       AT NODE         11   DOF  5
   INSTANCE: PART-2-1                                                                        
 LARGEST CORRECTION TO ROTATION    -7.945E-02   AT NODE        111   DOF  5
   INSTANCE: PART-2-1                                                                        
          THE MOMENT    EQUILIBRIUM EQUATIONS HAVE CONVERGED
 
	SYMMETRIC DIRECT SPARSE SOLVER RUNNING ON
 	1 HOST:        1 MPI RANK  x 2 THREADS
 	NUMBER OF EQUATIONS:     2778
 	NUMBER OF RHS:           1
 	NUMBER OF FLOPS:         4.840e+07

     CHECK POINT   START OF SOLVER    

     CHECK POINT  END OF SOLVER       

       ELAPSED USER TIME (SEC)      =  0.10000    
       ELAPSED SYSTEM TIME (SEC)    =   0.0000    
       ELAPSED TOTAL CPU TIME (SEC) =  0.10000    
       ELAPSED WALLCLOCK TIME (SEC) =          0

               CONVERGENCE CHECKS FOR EQUILIBRIUM ITERATION     1

   MAX. PENETRATION ERROR -1.23619E-03 AT NODE PART-2-1.1 OF CONTACT PAIR 
   (GENERAL_CONTACT_FACES_2,GENERAL_CONTACT_FACES_1)
   MAX. CONTACT FORCE ERROR -31.4923E-03  AT NODE PART-2-1.12 OF CONTACT PAIR 
   (GENERAL_CONTACT_FACES_2,GENERAL_CONTACT_FACES_1)
          THE CONTACT CONSTRAINTS HAVE CONVERGED.

 AVERAGE FORCE                       1.14       TIME AVG. FORCE       0.354    
 LARGEST RESIDUAL FORCE            -0.175       AT NODE        110   DOF  3
   INSTANCE: PART-1-1                                                                        
 LARGEST INCREMENT OF DISP.         -24.0       AT NODE         11   DOF  3
   INSTANCE: PART-1-2                                                                        
 LARGEST CORRECTION TO DISP.        7.387E-02   AT NODE        115   DOF  1
   INSTANCE: PART-2-1                                                                        
          FORCE     EQUILIBRIUM NOT ACHIEVED WITHIN TOLERANCE.

 AVERAGE MOMENT                     0.220       TIME AVG. MOMENT      6.106E-02
 LARGEST RESIDUAL MOMENT            1.195E-11   AT NODE         21   DOF  5
   INSTANCE: PART-1-2                                                                        
 LARGEST INCREMENT OF ROTATION      0.307       AT NODE         11   DOF  5
   INSTANCE: PART-2-1                                                                        
 LARGEST CORRECTION TO ROTATION     6.787E-03   AT NODE        111   DOF  5
   INSTANCE: PART-2-1                                                                        
          THE MOMENT    EQUILIBRIUM RESPONSE WAS LINEAR IN THIS INCREMENT
 
	SYMMETRIC DIRECT SPARSE SOLVER RUNNING ON
 	1 HOST:        1 MPI RANK  x 2 THREADS
 	NUMBER OF EQUATIONS:     2778
 	NUMBER OF RHS:           1
 	NUMBER OF FLOPS:         4.840e+07

     CHECK POINT   START OF SOLVER    

     CHECK POINT  END OF SOLVER       

       ELAPSED USER TIME (SEC)      =   0.0000    
       ELAPSED SYSTEM TIME (SEC)    =   0.0000    
       ELAPSED TOTAL CPU TIME (SEC) =   0.0000    
       ELAPSED WALLCLOCK TIME (SEC) =          0

               CONVERGENCE CHECKS FOR EQUILIBRIUM ITERATION     2

   MAX. PENETRATION ERROR -66.5807E-06  AT NODE PART-2-1.1 OF CONTACT PAIR 
   (GENERAL_CONTACT_FACES_2,GENERAL_CONTACT_FACES_1)
   MAX. CONTACT FORCE ERROR 1.67711E-03 AT NODE PART-1-1.55 OF CONTACT PAIR 
   (GENERAL_CONTACT_FACES_5,GENERAL_CONTACT_FACES_1)
          THE CONTACT CONSTRAINTS HAVE CONVERGED.

 AVERAGE FORCE                       1.14       TIME AVG. FORCE       0.354    
 LARGEST RESIDUAL FORCE            -5.902E-03   AT NODE        110   DOF  3
   INSTANCE: PART-1-1                                                                        
 LARGEST INCREMENT OF DISP.         -24.0       AT NODE         11   DOF  3
   INSTANCE: PART-1-2                                                                        
 LARGEST CORRECTION TO DISP.       -2.994E-03   AT NODE        117   DOF  3
   INSTANCE: PART-1-1                                                                        
          FORCE     EQUILIBRIUM NOT ACHIEVED WITHIN TOLERANCE.

 AVERAGE MOMENT                     0.220       TIME AVG. MOMENT      6.105E-02
 LARGEST RESIDUAL MOMENT            1.411E-11   AT NODE         64   DOF  5
   INSTANCE: PART-1-2                                                                        
 LARGEST INCREMENT OF ROTATION      0.307       AT NODE         11   DOF  5
   INSTANCE: PART-2-1                                                                        
 LARGEST CORRECTION TO ROTATION     2.404E-04   AT NODE          1   DOF  5
   INSTANCE: PART-2-1                                                                        
          THE MOMENT    EQUILIBRIUM EQUATIONS HAVE CONVERGED
 
	SYMMETRIC DIRECT SPARSE SOLVER RUNNING ON
 	1 HOST:        1 MPI RANK  x 2 THREADS
 	NUMBER OF EQUATIONS:     2778
 	NUMBER OF RHS:           1
 	NUMBER OF FLOPS:         4.840e+07

     CHECK POINT   START OF SOLVER    

     CHECK POINT  END OF SOLVER       

       ELAPSED USER TIME (SEC)      =   0.0000    
       ELAPSED SYSTEM TIME (SEC)    =   0.0000    
       ELAPSED TOTAL CPU TIME (SEC) =   0.0000    
       ELAPSED WALLCLOCK TIME (SEC) =          0

               CONVERGENCE CHECKS FOR EQUILIBRIUM ITERATION     3

   MAX. PENETRATION ERROR 69.6040E-06  AT NODE PART-1-1.22 OF CONTACT PAIR 
   (GENERAL_CONTACT_FACES_5,GENERAL_CONTACT_FACES_1)
   MAX. CONTACT FORCE ERROR 1.81243E-03 AT NODE PART-1-1.22 OF CONTACT PAIR 
   (GENERAL_CONTACT_FACES_5,GENERAL_CONTACT_FACES_1)
          THE CONTACT CONSTRAINTS HAVE CONVERGED.

 AVERAGE FORCE                       1.14       TIME AVG. FORCE       0.354    
 LARGEST RESIDUAL FORCE             5.608E-04   AT NODE         66   DOF  3
   INSTANCE: PART-1-1                                                                        
 LARGEST INCREMENT OF DISP.         -24.0       AT NODE         11   DOF  3
   INSTANCE: PART-1-2                                                                        
 LARGEST CORRECTION TO DISP.        5.820E-04   AT NODE          8   DOF  1
   INSTANCE: PART-1-1                                                                        
          THE FORCE     EQUILIBRIUM EQUATIONS HAVE CONVERGED

 AVERAGE MOMENT                     0.220       TIME AVG. MOMENT      6.105E-02
 LARGEST RESIDUAL MOMENT            1.147E-11   AT NODE        102   DOF  5
   INSTANCE: PART-1-1                                                                        
 LARGEST INCREMENT OF ROTATION      0.307       AT NODE        121   DOF  5
   INSTANCE: PART-2-1                                                                        
 LARGEST CORRECTION TO ROTATION    -2.349E-05   AT NODE         56   DOF  5
   INSTANCE: PART-2-1                                                                        
          THE MOMENT    EQUILIBRIUM EQUATIONS HAVE CONVERGED

 ITERATION SUMMARY FOR THE INCREMENT:   5 TOTAL ITERATIONS, OF WHICH
   2 ARE SEVERE DISCONTINUITY ITERATIONS AND  3 ARE EQUILIBRIUM ITERATIONS.

 TIME INCREMENT COMPLETED  0.300    ,  FRACTION OF STEP COMPLETED  0.922    
 STEP TIME COMPLETED       0.922    ,  TOTAL TIME COMPLETED        0.922    


  INCREMENT    10 STARTS. ATTEMPT NUMBER  1, TIME INCREMENT  7.803E-02
 
	SYMMETRIC DIRECT SPARSE SOLVER RUNNING ON
 	1 HOST:        1 MPI RANK  x 2 THREADS
 	NUMBER OF EQUATIONS:     2778
 	NUMBER OF RHS:           1
 	NUMBER OF FLOPS:         4.840e+07

     CHECK POINT   START OF SOLVER    

     CHECK POINT  END OF SOLVER       

       ELAPSED USER TIME (SEC)      =   0.0000    
       ELAPSED SYSTEM TIME (SEC)    =   0.0000    
       ELAPSED TOTAL CPU TIME (SEC) =   0.0000    
       ELAPSED WALLCLOCK TIME (SEC) =          0

                    2 SEVERE DISCONTINUITIES OCCURRED DURING THIS ITERATION.
                    2 POINTS CHANGED FROM OPEN TO CLOSED

               CONVERGENCE CHECKS FOR SEVERE DISCONTINUITY ITERATION     1

   MAX. PENETRATION ERROR 6.43338E-03 AT NODE PART-1-1.11 OF CONTACT PAIR 
   (GENERAL_CONTACT_FACES_5,GENERAL_CONTACT_FACES_1)
   MAX. CONTACT FORCE ERROR 132.639E-03   AT NODE PART-1-1.110 OF CONTACT PAIR 
   (GENERAL_CONTACT_FACES_5,GENERAL_CONTACT_FACES_1)
          THE CONTACT CONSTRAINT ERRORS ARE WITHIN THE TOLERANCES.

 AVERAGE FORCE                       1.23       TIME AVG. FORCE       0.441    
 LARGEST RESIDUAL FORCE              1.91       AT NODE         22   DOF  3
   INSTANCE: PART-1-1                                                                        
 LARGEST INCREMENT OF DISP.         -6.24       AT NODE         11   DOF  3
   INSTANCE: PART-1-2                                                                        
 LARGEST CORRECTION TO DISP.       -0.594       AT NODE          5   DOF  1
   INSTANCE: PART-2-1                                                                        
          FORCE     EQUILIBRIUM NOT ACHIEVED WITHIN TOLERANCE.

 AVERAGE MOMENT                     0.280       TIME AVG. MOMENT      8.291E-02
 LARGEST RESIDUAL MOMENT            1.202E-11   AT NODE        106   DOF  4
   INSTANCE: PART-1-2                                                                        
 LARGEST INCREMENT OF ROTATION      0.114       AT NODE         11   DOF  5
   INSTANCE: PART-2-1                                                                        
 LARGEST CORRECTION TO ROTATION    -5.679E-02   AT NODE          1   DOF  5
   INSTANCE: PART-2-1                                                                        
          THE MOMENT    EQUILIBRIUM EQUATIONS HAVE CONVERGED
 
	SYMMETRIC DIRECT SPARSE SOLVER RUNNING ON
 	1 HOST:        1 MPI RANK  x 2 THREADS
 	NUMBER OF EQUATIONS:     2778
 	NUMBER OF RHS:           1
 	NUMBER OF FLOPS:         4.840e+07

     CHECK POINT   START OF SOLVER    

     CHECK POINT  END OF SOLVER       

       ELAPSED USER TIME (SEC)      =  0.10000    
       ELAPSED SYSTEM TIME (SEC)    =   0.0000    
       ELAPSED TOTAL CPU TIME (SEC) =  0.10000    
       ELAPSED WALLCLOCK TIME (SEC) =          0

               CONVERGENCE CHECKS FOR EQUILIBRIUM ITERATION     1

   MAX. PENETRATION ERROR -666.673E-06   AT NODE PART-2-1.111 OF CONTACT PAIR 
   (GENERAL_CONTACT_FACES_2,GENERAL_CONTACT_FACES_1)
   MAX. CONTACT FORCE ERROR -16.6866E-03  AT NODE PART-2-1.100 OF CONTACT PAIR 
   (GENERAL_CONTACT_FACES_2,GENERAL_CONTACT_FACES_1)
          THE CONTACT CONSTRAINTS HAVE CONVERGED.

 AVERAGE FORCE                       1.23       TIME AVG. FORCE       0.441    
 LARGEST RESIDUAL FORCE            -7.673E-02   AT NODE         22   DOF  3
   INSTANCE: PART-1-1                                                                        
 LARGEST INCREMENT OF DISP.         -6.24       AT NODE         11   DOF  3
   INSTANCE: PART-1-2                                                                        
 LARGEST CORRECTION TO DISP.        3.514E-02   AT NODE          5   DOF  1
   INSTANCE: PART-2-1                                                                        
          FORCE     EQUILIBRIUM NOT ACHIEVED WITHIN TOLERANCE.

 AVERAGE MOMENT                     0.278       TIME AVG. MOMENT      8.271E-02
 LARGEST RESIDUAL MOMENT           -1.201E-11   AT NODE         75   DOF  6
   INSTANCE: PART-1-2                                                                        
 LARGEST INCREMENT OF ROTATION      0.112       AT NODE         11   DOF  5
   INSTANCE: PART-2-1                                                                        
 LARGEST CORRECTION TO ROTATION     3.187E-03   AT NODE        111   DOF  5
   INSTANCE: PART-2-1                                                                        
          THE MOMENT    EQUILIBRIUM RESPONSE WAS LINEAR IN THIS INCREMENT
 
	SYMMETRIC DIRECT SPARSE SOLVER RUNNING ON
 	1 HOST:        1 MPI RANK  x 2 THREADS
 	NUMBER OF EQUATIONS:     2778
 	NUMBER OF RHS:           1
 	NUMBER OF FLOPS:         4.840e+07

     CHECK POINT   START OF SOLVER    

     CHECK POINT  END OF SOLVER       

       ELAPSED USER TIME (SEC)      =  0.10000    
       ELAPSED SYSTEM TIME (SEC)    =   0.0000    
       ELAPSED TOTAL CPU TIME (SEC) =  0.10000    
       ELAPSED WALLCLOCK TIME (SEC) =          0

               CONVERGENCE CHECKS FOR EQUILIBRIUM ITERATION     2

   MAX. PENETRATION ERROR -68.4200E-06  AT NODE PART-2-1.1 OF CONTACT PAIR 
   (GENERAL_CONTACT_FACES_2,GENERAL_CONTACT_FACES_1)
   MAX. CONTACT FORCE ERROR -1.69757E-03 AT NODE PART-2-1.12 OF CONTACT PAIR 
   (GENERAL_CONTACT_FACES_2,GENERAL_CONTACT_FACES_1)
          THE CONTACT CONSTRAINTS HAVE CONVERGED.

 AVERAGE FORCE                       1.23       TIME AVG. FORCE       0.441    
 LARGEST RESIDUAL FORCE            -3.194E-03   AT NODE         22   DOF  3
   INSTANCE: PART-1-1                                                                        
 LARGEST INCREMENT OF DISP.         -6.24       AT NODE         11   DOF  3
   INSTANCE: PART-1-2                                                                        
 LARGEST CORRECTION TO DISP.       -1.656E-03   AT NODE          5   DOF  3
   INSTANCE: PART-2-1                                                                        
          FORCE     EQUILIBRIUM NOT ACHIEVED WITHIN TOLERANCE.

 AVERAGE MOMENT                     0.278       TIME AVG. MOMENT      8.273E-02
 LARGEST RESIDUAL MOMENT           -1.328E-11   AT NODE         96   DOF  5
   INSTANCE: PART-1-2                                                                        
 LARGEST INCREMENT OF ROTATION      0.112       AT NODE        121   DOF  5
   INSTANCE: PART-2-1                                                                        
 LARGEST CORRECTION TO ROTATION     1.583E-04   AT NODE          1   DOF  5
   INSTANCE: PART-2-1                                                                        
          THE MOMENT    EQUILIBRIUM EQUATIONS HAVE CONVERGED
 
	SYMMETRIC DIRECT SPARSE SOLVER RUNNING ON
 	1 HOST:        1 MPI RANK  x 2 THREADS
 	NUMBER OF EQUATIONS:     2778
 	NUMBER OF RHS:           1
 	NUMBER OF FLOPS:         4.840e+07

     CHECK POINT   START OF SOLVER    

     CHECK POINT  END OF SOLVER       

       ELAPSED USER TIME (SEC)      =  0.10000    
       ELAPSED SYSTEM TIME (SEC)    =   0.0000    
       ELAPSED TOTAL CPU TIME (SEC) =  0.10000    
       ELAPSED WALLCLOCK TIME (SEC) =          0

               CONVERGENCE CHECKS FOR EQUILIBRIUM ITERATION     3

   MAX. PENETRATION ERROR 66.7032E-06  AT NODE PART-1-1.11 OF CONTACT PAIR 
   (GENERAL_CONTACT_FACES_5,GENERAL_CONTACT_FACES_1)
   MAX. CONTACT FORCE ERROR 1.71514E-03 AT NODE PART-1-1.22 OF CONTACT PAIR 
   (GENERAL_CONTACT_FACES_5,GENERAL_CONTACT_FACES_1)
          THE CONTACT CONSTRAINTS HAVE CONVERGED.

 AVERAGE FORCE                       1.23       TIME AVG. FORCE       0.441    
 LARGEST RESIDUAL FORCE             2.417E-04   AT NODE         22   DOF  3
   INSTANCE: PART-1-1                                                                        
 LARGEST INCREMENT OF DISP.         -6.24       AT NODE         11   DOF  3
   INSTANCE: PART-1-2                                                                        
 LARGEST CORRECTION TO DISP.        4.818E-04   AT NODE          8   DOF  1
   INSTANCE: PART-1-1                                                                        
          THE FORCE     EQUILIBRIUM EQUATIONS HAVE CONVERGED

 AVERAGE MOMENT                     0.278       TIME AVG. MOMENT      8.273E-02
 LARGEST RESIDUAL MOMENT            1.394E-11   AT NODE         97   DOF  6
   INSTANCE: PART-1-2                                                                        
 LARGEST INCREMENT OF ROTATION      0.112       AT NODE         11   DOF  5
   INSTANCE: PART-2-1                                                                        
 LARGEST CORRECTION TO ROTATION    -1.210E-05   AT NODE          1   DOF  5
   INSTANCE: PART-1-1                                                                        
          THE MOMENT    EQUILIBRIUM EQUATIONS HAVE CONVERGED

 ITERATION SUMMARY FOR THE INCREMENT:   4 TOTAL ITERATIONS, OF WHICH
   1 ARE SEVERE DISCONTINUITY ITERATIONS AND  3 ARE EQUILIBRIUM ITERATIONS.

 TIME INCREMENT COMPLETED  7.803E-02,  FRACTION OF STEP COMPLETED   1.00    
 STEP TIME COMPLETED        1.00    ,  TOTAL TIME COMPLETED         1.00    
1

   Abaqus 2022                                  Date 19-Dez-2023   Time 15:19:49
   For use by MONTANUNIVERSITAT LEOBEN under license from Dassault Systemes or its subsidiary.

                                                                                 
                                                                                 
 STEP    2     INCREMENT     1     STEP TIME    0.00    


                        S T E P       2     D Y N A M I C   A N A L Y S I S - I M P L I C I T  I N T E G R A T I O N


                                                                                          

          DYNAMIC APPLICATION PACKED SCHEME IS                 MODERATE DISSIPATION
          HILBER-HUGHES-TAYLOR (HHT) TIME INTEGRATOR IS USED

     AUTOMATIC TIME CONTROL WITH -
          A SUGGESTED INITIAL TIME INCREMENT OF                 1.00    
          AND A TOTAL TIME PERIOD OF                            1.00    
          THE MINIMUM TIME INCREMENT ALLOWED IS                1.000E-10
          THE MAXIMUM TIME INCREMENT ALLOWED IS                 1.00    

          THE HALF-INCREMENT RESIDUALS WILL NOT BE CALCULATED

          INITIAL ACCELERATIONS WILL NOT BE CALCULATED

          HILBER-HUGHES-TAYLOR METHOD PARAMETERS:  ALPHA   IS  -0.414214    
                                                   BETA    IS   0.500000    
                                                   GAMMA   IS   0.914214    
          CONTACT IMPACT/RELEASE COMPUTATIONS ARE SKIPPED
          AGGRESSIVE   TIME INCREMENTATION IS USED
          STEP AMPLITUDE IS                                    STEP

 CONVERGENCE TOLERANCE PARAMETERS FOR FORCE    
[...]

   MAX. PENETRATION ERROR 2.60633     AT NODE PART-1-1.121 OF CONTACT PAIR 
   (GENERAL_CONTACT_FACES_5,GENERAL_CONTACT_FACES_1)
   MAX. CONTACT FORCE ERROR 156.930       AT NODE PART-1-1.110 OF CONTACT PAIR 
   (GENERAL_CONTACT_EDGES_5,GENERAL_CONTACT_FACES_1)
          PENETRATION ERROR TOO LARGE COMPARED TO DISPLACEMENT INCREMENT.

 AVERAGE FORCE                      0.671       TIME AVG. FORCE       7.659E-02
 LARGEST RESIDUAL FORCE              4.31       AT NODE         99   DOF  3
   INSTANCE: PART-1-1                                                                        
 LARGEST INCREMENT OF DISP.         -15.4       AT NODE        118   DOF  3
   INSTANCE: PART-1-2                                                                        
 LARGEST CORRECTION TO DISP.        -17.4       AT NODE          8   DOF  3
   INSTANCE: PART-1-2                                                                        
          FORCE     EQUILIBRIUM NOT ACHIEVED WITHIN TOLERANCE.

 AVERAGE MOMENT                     1.461E-03   TIME AVG. MOMENT      5.140E-02
 LARGEST RESIDUAL MOMENT           -1.072E-11   AT NODE         14   DOF  5
   INSTANCE: PART-2-1                                                                        
 LARGEST INCREMENT OF ROTATION     -7.835E-03   AT NODE         11   DOF  5
   INSTANCE: PART-1-1                                                                        
 LARGEST CORRECTION TO ROTATION     2.615E-02   AT NODE          1   DOF  5
   INSTANCE: PART-2-1                                                                        
          THE MOMENT    EQUILIBRIUM EQUATIONS HAVE CONVERGED
 
	SYMMETRIC DIRECT SPARSE SOLVER RUNNING ON
 	1 HOST:        1 MPI RANK  x 2 THREADS
 	NUMBER OF EQUATIONS:     2778
 	NUMBER OF RHS:           1
 	NUMBER OF FLOPS:         3.548e+07

     CHECK POINT   START OF SOLVER    

     CHECK POINT  END OF SOLVER       

       ELAPSED USER TIME (SEC)      =   0.0000    
       ELAPSED SYSTEM TIME (SEC)    =   0.0000    
       ELAPSED TOTAL CPU TIME (SEC) =   0.0000    
       ELAPSED WALLCLOCK TIME (SEC) =          0

                   18 SEVERE DISCONTINUITIES OCCURRED DURING THIS ITERATION.
                   18 POINTS CHANGED FROM CLOSED TO OPEN

               CONVERGENCE CHECKS FOR SEVERE DISCONTINUITY ITERATION     2

   MAX. PENETRATION ERROR 279.833E-18   AT NODE PART-2-1.111 OF CONTACT PAIR 
   (GENERAL_CONTACT_EDGES_2,GENERAL_CONTACT_FACES_1)
   MAX. CONTACT FORCE ERROR -857.745E-03   AT NODE PART-2-1.89 OF CONTACT PAIR 
   (GENERAL_CONTACT_EDGES_2,GENERAL_CONTACT_FACES_1)
          THE ESTIMATED CONTACT FORCE ERROR IS OUTSIDE OF CONVERGENCE TOLERANCES.

 AVERAGE FORCE                      7.455E-02   TIME AVG. FORCE       5.795E-02
 LARGEST RESIDUAL FORCE              1.75       AT NODE        121   DOF  3
   INSTANCE: PART-1-1                                                                        
 LARGEST INCREMENT OF DISP.         -11.4       AT NODE         11   DOF  3
   INSTANCE: PART-1-1                                                                        
 LARGEST CORRECTION TO DISP.         13.2       AT NODE        116   DOF  3
   INSTANCE: PART-2-1                                                                        
          FORCE     EQUILIBRIUM NOT ACHIEVED WITHIN TOLERANCE.

 AVERAGE MOMENT                     0.549       TIME AVG. MOMENT      6.852E-02
 LARGEST RESIDUAL MOMENT            5.743E-12   AT NODE         90   DOF  5
   INSTANCE: PART-2-1                                                                        
 LARGEST INCREMENT OF ROTATION     -0.843       AT NODE         67   DOF  5
   INSTANCE: PART-2-1                                                                        
 LARGEST CORRECTION TO ROTATION    -0.850       AT NODE         67   DOF  5
   INSTANCE: PART-2-1                                                                        
          THE MOMENT    EQUILIBRIUM EQUATIONS HAVE CONVERGED
 
	SYMMETRIC DIRECT SPARSE SOLVER RUNNING ON
 	1 HOST:        1 MPI RANK  x 2 THREADS
 	NUMBER OF EQUATIONS:     2778
 	NUMBER OF RHS:           1
 	NUMBER OF FLOPS:         3.534e+07

     CHECK POINT   START OF SOLVER    

     CHECK POINT  END OF SOLVER       

       ELAPSED USER TIME (SEC)      =  0.10000    
       ELAPSED SYSTEM TIME (SEC)    =   0.0000    
       ELAPSED TOTAL CPU TIME (SEC) =  0.10000    
       ELAPSED WALLCLOCK TIME (SEC) =          0

                   18 SEVERE DISCONTINUITIES OCCURRED DURING THIS ITERATION.
                   18 POINTS CHANGED FROM OPEN TO CLOSED

               CONVERGENCE CHECKS FOR SEVERE DISCONTINUITY ITERATION     3

   MAX. PENETRATION ERROR 61.2776E-06  AT NODE PART-1-1.88 OF CONTACT PAIR 
   (GENERAL_CONTACT_EDGES_5,GENERAL_CONTACT_FACES_1)
   MAX. CONTACT FORCE ERROR 5.45064E-03 AT NODE PART-2-1.56 OF CONTACT PAIR 
   (GENERAL_CONTACT_EDGES_2,GENERAL_CONTACT_FACES_1)
          THE CONTACT CONSTRAINT ERRORS ARE WITHIN THE TOLERANCES.

 AVERAGE FORCE                      3.810E-04   TIME AVG. FORCE       5.563E-02
 LARGEST RESIDUAL FORCE             1.183E-04   AT NODE         66   DOF  3
   INSTANCE: PART-1-1                                                                        
 LARGEST INCREMENT OF DISP.         -11.7       AT NODE          8   DOF  3
   INSTANCE: PART-1-2                                                                        
 LARGEST CORRECTION TO DISP.        -9.50       AT NODE        116   DOF  3
   INSTANCE: PART-2-1                                                                        
          DISP.    CORRECTION TOO LARGE COMPARED TO DISP.    INCREMENT

 AVERAGE MOMENT                     1.944E-03   TIME AVG. MOMENT      5.141E-02
 LARGEST RESIDUAL MOMENT           -5.627E-12   AT NODE         16   DOF  5
   INSTANCE: PART-2-1                                                                        
 LARGEST INCREMENT OF ROTATION     -8.852E-03   AT NODE         11   DOF  5
   INSTANCE: PART-1-1                                                                        
 LARGEST CORRECTION TO ROTATION     0.851       AT NODE         67   DOF  5
   INSTANCE: PART-2-1                                                                        
          THE MOMENT    EQUILIBRIUM EQUATIONS HAVE CONVERGED
 
	SYMMETRIC DIRECT SPARSE SOLVER RUNNING ON
 	1 HOST:        1 MPI RANK  x 2 THREADS
 	NUMBER OF EQUATIONS:     2778
 	NUMBER OF RHS:           1
 	NUMBER OF FLOPS:         3.537e+07

     CHECK POINT   START OF SOLVER    

     CHECK POINT  END OF SOLVER       

       ELAPSED USER TIME (SEC)      =   0.0000    
       ELAPSED SYSTEM TIME (SEC)    =   0.0000    
       ELAPSED TOTAL CPU TIME (SEC) =   0.0000    
       ELAPSED WALLCLOCK TIME (SEC) =          0

               CONVERGENCE CHECKS FOR EQUILIBRIUM ITERATION     1

   MAX. PENETRATION ERROR -40.3215E-15  AT NODE PART-1-1.110 OF CONTACT PAIR 
   (GENERAL_CONTACT_EDGES_5,GENERAL_CONTACT_FACES_1)
   MAX. CONTACT FORCE ERROR -3.40097E-12 AT NODE PART-1-1.110 OF CONTACT PAIR 
   (GENERAL_CONTACT_EDGES_5,GENERAL_CONTACT_FACES_1)
          THE CONTACT CONSTRAINTS HAVE CONVERGED.

 AVERAGE FORCE                      3.648E-04   TIME AVG. FORCE       5.563E-02
 LARGEST RESIDUAL FORCE             1.182E-04   AT NODE         66   DOF  3
   INSTANCE: PART-1-1                                                                        
 LARGEST INCREMENT OF DISP.         -11.7       AT NODE          8   DOF  3
   INSTANCE: PART-1-2                                                                        
 LARGEST CORRECTION TO DISP.        1.289E-04   AT NODE         56   DOF  3
   INSTANCE: PART-2-1                                                                        
          THE FORCE     EQUILIBRIUM EQUATIONS HAVE CONVERGED

 AVERAGE MOMENT                     1.936E-03   TIME AVG. MOMENT      5.141E-02
 LARGEST RESIDUAL MOMENT           -6.637E-13   AT NODE         54   DOF  5
   INSTANCE: PART-1-2                                                                        
 LARGEST INCREMENT OF ROTATION     -8.851E-03   AT NODE         11   DOF  5
   INSTANCE: PART-1-1                                                                        
 LARGEST CORRECTION TO ROTATION    -2.864E-05   AT NODE        121   DOF  4
   INSTANCE: PART-1-1                                                                        
          THE MOMENT    EQUILIBRIUM RESPONSE WAS LINEAR IN THIS INCREMENT
          TIME INCREMENT MAY NOW INCREASE TO    6.858E-02

 ITERATION SUMMARY FOR THE INCREMENT:   4 TOTAL ITERATIONS, OF WHICH
   3 ARE SEVERE DISCONTINUITY ITERATIONS AND  1 ARE EQUILIBRIUM ITERATIONS.

 TIME INCREMENT COMPLETED  4.572E-02,  FRACTION OF STEP COMPLETED  0.790    
 STEP TIME COMPLETED       0.790    ,  TOTAL TIME COMPLETED         1.79    


  INCREMENT    33 STARTS. ATTEMPT NUMBER  1, TIME INCREMENT  6.858E-02
 
	SYMMETRIC DIRECT SPARSE SOLVER RUNNING ON
 	1 HOST:        1 MPI RANK  x 2 THREADS
 	NUMBER OF EQUATIONS:     2778
 	NUMBER OF RHS:           1
 	NUMBER OF FLOPS:         3.537e+07

     CHECK POINT   START OF SOLVER    

     CHECK POINT  END OF SOLVER       

       ELAPSED USER TIME (SEC)      =   0.0000    
       ELAPSED SYSTEM TIME (SEC)    =   0.0000    
       ELAPSED TOTAL CPU TIME (SEC) =   0.0000    
       ELAPSED WALLCLOCK TIME (SEC) =          0

               CONVERGENCE CHECKS FOR EQUILIBRIUM ITERATION     1

   MAX. PENETRATION ERROR 446.573E-15   AT NODE PART-2-1.12 OF CONTACT PAIR 
   (GENERAL_CONTACT_EDGES_2,GENERAL_CONTACT_FACES_1)
   MAX. CONTACT FORCE ERROR 37.6669E-12  AT NODE PART-2-1.12 OF CONTACT PAIR 
   (GENERAL_CONTACT_EDGES_2,GENERAL_CONTACT_FACES_1)
          THE CONTACT CONSTRAINTS HAVE CONVERGED.

 AVERAGE FORCE                      5.009E-02   TIME AVG. FORCE       5.546E-02
 LARGEST RESIDUAL FORCE              15.8       AT NODE         33   DOF  3
   INSTANCE: PART-1-1                                                                        
 LARGEST INCREMENT OF DISP.        -1.706E-02   AT NODE         11   DOF  3
   INSTANCE: PART-1-1                                                                        
 LARGEST CORRECTION TO DISP.         17.5       AT NODE          8   DOF  3
   INSTANCE: PART-1-2                                                                        
          FORCE     EQUILIBRIUM NOT ACHIEVED WITHIN TOLERANCE.

 AVERAGE MOMENT                     1.612E-03   TIME AVG. MOMENT      4.990E-02
 LARGEST RESIDUAL MOMENT            1.489E-11   AT NODE         63   DOF  5
   INSTANCE: PART-2-1                                                                        
 LARGEST INCREMENT OF ROTATION     -5.988E-04   AT NODE        111   DOF  5
   INSTANCE: PART-2-1                                                                        
 LARGEST CORRECTION TO ROTATION    -1.381E-02   AT NODE          1   DOF  5
   INSTANCE: PART-2-1                                                                        
          THE MOMENT    EQUILIBRIUM RESPONSE WAS LINEAR IN THIS INCREMENT
 
	SYMMETRIC DIRECT SPARSE SOLVER RUNNING ON
 	1 HOST:        1 MPI RANK  x 2 THREADS
 	NUMBER OF EQUATIONS:     2778
 	NUMBER OF RHS:           1
 	NUMBER OF FLOPS:         3.537e+07

     CHECK POINT   START OF SOLVER    

     CHECK POINT  END OF SOLVER       

       ELAPSED USER TIME (SEC)      =  0.10000    
       ELAPSED SYSTEM TIME (SEC)    =   0.0000    
       ELAPSED TOTAL CPU TIME (SEC) =  0.10000    
       ELAPSED WALLCLOCK TIME (SEC) =          0

               CONVERGENCE CHECKS FOR EQUILIBRIUM ITERATION     2

   MAX. PENETRATION ERROR -131.321E-18   AT NODE PART-2-1.12 OF CONTACT PAIR 
   (GENERAL_CONTACT_EDGES_2,GENERAL_CONTACT_FACES_1)
   MAX. CONTACT FORCE ERROR -11.0764E-15  AT NODE PART-2-1.12 OF CONTACT PAIR 
   (GENERAL_CONTACT_EDGES_2,GENERAL_CONTACT_FACES_1)
          THE CONTACT CONSTRAINTS HAVE CONVERGED.

 AVERAGE FORCE                      3.591E-04   TIME AVG. FORCE       5.396E-02
 LARGEST RESIDUAL FORCE             6.141E-12   AT NODE         33   DOF  3
   INSTANCE: PART-1-1                                                                        
 LARGEST INCREMENT OF DISP.         1.938E-02   AT NODE        117   DOF  3
   INSTANCE: PART-1-3                                                                        
 LARGEST CORRECTION TO DISP.        1.704E-02   AT NODE         11   DOF  3
   INSTANCE: PART-1-1                                                                        
          THE FORCE     EQUILIBRIUM EQUATIONS HAVE CONVERGED

 AVERAGE MOMENT                     1.613E-03   TIME AVG. MOMENT      4.990E-02
 LARGEST RESIDUAL MOMENT           -2.009E-13   AT NODE        104   DOF  4
   INSTANCE: PART-1-3                                                                        
 LARGEST INCREMENT OF ROTATION     -5.967E-04   AT NODE        111   DOF  5
   INSTANCE: PART-2-1                                                                        
 LARGEST CORRECTION TO ROTATION     2.077E-06   AT NODE          1   DOF  5
   INSTANCE: PART-2-1                                                                        
          THE MOMENT    EQUILIBRIUM EQUATIONS HAVE CONVERGED
          TIME INCREMENT MAY NOW INCREASE TO    0.103    

 ITERATION SUMMARY FOR THE INCREMENT:   2 TOTAL ITERATIONS, OF WHICH
   0 ARE SEVERE DISCONTINUITY ITERATIONS AND  2 ARE EQUILIBRIUM ITERATIONS.

 TIME INCREMENT COMPLETED  6.858E-02,  FRACTION OF STEP COMPLETED  0.859    
 STEP TIME COMPLETED       0.859    ,  TOTAL TIME COMPLETED         1.86    


  INCREMENT    34 STARTS. ATTEMPT NUMBER  1, TIME INCREMENT  0.103    
 
	SYMMETRIC DIRECT SPARSE SOLVER RUNNING ON
 	1 HOST:        1 MPI RANK  x 2 THREADS
 	NUMBER OF EQUATIONS:     2778
 	NUMBER OF RHS:           1
 	NUMBER OF FLOPS:         3.537e+07

     CHECK POINT   START OF SOLVER    

     CHECK POINT  END OF SOLVER       

       ELAPSED USER TIME (SEC)      =  0.10000    
       ELAPSED SYSTEM TIME (SEC)    =   0.0000    
       ELAPSED TOTAL CPU TIME (SEC) =  0.10000    
       ELAPSED WALLCLOCK TIME (SEC) =          0

               CONVERGENCE CHECKS FOR EQUILIBRIUM ITERATION     1

   MAX. PENETRATION ERROR -10.2239E-15  AT NODE PART-2-1.12 OF CONTACT PAIR 
   (GENERAL_CONTACT_EDGES_2,GENERAL_CONTACT_FACES_1)
   MAX. CONTACT FORCE ERROR -862.347E-15   AT NODE PART-2-1.12 OF CONTACT PAIR 
   (GENERAL_CONTACT_EDGES_2,GENERAL_CONTACT_FACES_1)
          THE CONTACT CONSTRAINTS HAVE CONVERGED.

 AVERAGE FORCE                      1.467E-04   TIME AVG. FORCE       5.237E-02
 LARGEST RESIDUAL FORCE            -2.633E-09   AT NODE         55   DOF  3
   INSTANCE: PART-1-1                                                                        
 LARGEST INCREMENT OF DISP.         0.168       AT NODE          8   DOF  3
   INSTANCE: PART-1-3                                                                        
 LARGEST CORRECTION TO DISP.        0.139       AT NODE          8   DOF  3
   INSTANCE: PART-1-2                                                                        
 ESTIMATE OF DISP.    CORRECTION   -1.780E-08
 FORCE     EQUILIB. ACCEPTED BASED ON SMALL RESIDUAL AND ESTIMATED CORRECTION

 AVERAGE MOMENT                     6.282E-04   TIME AVG. MOMENT      4.845E-02
 LARGEST RESIDUAL MOMENT           -2.414E-13   AT NODE         18   DOF  5
   INSTANCE: PART-1-2                                                                        
 LARGEST INCREMENT OF ROTATION     -4.945E-03   AT NODE          1   DOF  5
   INSTANCE: PART-2-1                                                                        
 LARGEST CORRECTION TO ROTATION    -4.050E-03   AT NODE          1   DOF  5
   INSTANCE: PART-2-1                                                                        
          THE MOMENT    EQUILIBRIUM RESPONSE WAS LINEAR IN THIS INCREMENT

 ITERATION SUMMARY FOR THE INCREMENT:   1 TOTAL ITERATIONS, OF WHICH
   0 ARE SEVERE DISCONTINUITY ITERATIONS AND  1 ARE EQUILIBRIUM ITERATIONS.

 TIME INCREMENT COMPLETED  0.103    ,  FRACTION OF STEP COMPLETED  0.962    
 STEP TIME COMPLETED       0.962    ,  TOTAL TIME COMPLETED         1.96    


  INCREMENT    35 STARTS. ATTEMPT NUMBER  1, TIME INCREMENT  3.837E-02
 
	SYMMETRIC DIRECT SPARSE SOLVER RUNNING ON
 	1 HOST:        1 MPI RANK  x 2 THREADS
 	NUMBER OF EQUATIONS:     2778
 	NUMBER OF RHS:           1
 	NUMBER OF FLOPS:         3.537e+07

     CHECK POINT   START OF SOLVER    

     CHECK POINT  END OF SOLVER       

       ELAPSED USER TIME (SEC)      =   0.0000    
       ELAPSED SYSTEM TIME (SEC)    =   0.0000    
       ELAPSED TOTAL CPU TIME (SEC) =   0.0000    
       ELAPSED WALLCLOCK TIME (SEC) =          0

               CONVERGENCE CHECKS FOR EQUILIBRIUM ITERATION     1

   MAX. PENETRATION ERROR -265.964E-15   AT NODE PART-2-1.12 OF CONTACT PAIR 
   (GENERAL_CONTACT_EDGES_2,GENERAL_CONTACT_FACES_1)
   MAX. CONTACT FORCE ERROR -22.4331E-12  AT NODE PART-2-1.12 OF CONTACT PAIR 
   (GENERAL_CONTACT_EDGES_2,GENERAL_CONTACT_FACES_1)
          THE CONTACT CONSTRAINTS HAVE CONVERGED.

 AVERAGE FORCE                      5.696E-04   TIME AVG. FORCE       5.089E-02
 LARGEST RESIDUAL FORCE             1.935E-08   AT NODE         55   DOF  3
   INSTANCE: PART-1-1                                                                        
 LARGEST INCREMENT OF DISP.        -0.247       AT NODE          8   DOF  3
   INSTANCE: PART-1-2                                                                        
 LARGEST CORRECTION TO DISP.       -0.309       AT NODE          8   DOF  3
   INSTANCE: PART-1-2                                                                        
 ESTIMATE OF DISP.    CORRECTION   -5.647E-07
 FORCE     EQUILIB. ACCEPTED BASED ON SMALL RESIDUAL AND ESTIMATED CORRECTION

 AVERAGE MOMENT                     2.731E-03   TIME AVG. MOMENT      4.715E-02
 LARGEST RESIDUAL MOMENT            2.919E-13   AT NODE         13   DOF  5
   INSTANCE: PART-1-3                                                                        
 LARGEST INCREMENT OF ROTATION     -7.275E-03   AT NODE         11   DOF  5
   INSTANCE: PART-1-1                                                                        
 LARGEST CORRECTION TO ROTATION     9.086E-03   AT NODE          1   DOF  5
   INSTANCE: PART-2-1                                                                        
          THE MOMENT    EQUILIBRIUM RESPONSE WAS LINEAR IN THIS INCREMENT

 ITERATION SUMMARY FOR THE INCREMENT:   1 TOTAL ITERATIONS, OF WHICH
   0 ARE SEVERE DISCONTINUITY ITERATIONS AND  1 ARE EQUILIBRIUM ITERATIONS.

 TIME INCREMENT COMPLETED  3.837E-02,  FRACTION OF STEP COMPLETED   1.00    
 STEP TIME COMPLETED        1.00    ,  TOTAL TIME COMPLETED         2.00    


          THE ANALYSIS HAS BEEN COMPLETED



     ANALYSIS SUMMARY:
     TOTAL OF         45  INCREMENTS
                      13  CUTBACKS IN AUTOMATIC INCREMENTATION
                     116  ITERATIONS INCLUDING CONTACT ITERATIONS IF PRESENT
                     116  PASSES THROUGH THE EQUATION SOLVER OF WHICH 
                     116  INVOLVE MATRIX DECOMPOSITION, INCLUDING
                       0  DECOMPOSITION(S) OF THE MASS MATRIX
                       1  REORDERING OF EQUATIONS TO MINIMIZE WAVEFRONT
                       0  ADDITIONAL RESIDUAL EVALUATIONS FOR LINE SEARCHES
                       0  ADDITIONAL OPERATOR EVALUATIONS FOR LINE SEARCHES
                     750  WARNING MESSAGES DURING USER INPUT PROCESSING
                      35  WARNING MESSAGES DURING ANALYSIS
                       0  ANALYSIS WARNINGS ARE NUMERICAL PROBLEM MESSAGES
                      16  ANALYSIS WARNINGS ARE NEGATIVE EIGENVALUE MESSAGES
                       0  ERROR MESSAGES



     JOB TIME SUMMARY
       USER TIME (SEC)      =   38.300    
       SYSTEM TIME (SEC)    =   4.1000    
       TOTAL CPU TIME (SEC) =   42.400    
       WALLCLOCK TIME (SEC) =         32
