 Abaqus/Standard 2022                  DATE 19-Dez-2023 TIME 14:43:39
 SUMMARY OF JOB INFORMATION:
 STEP  INC ATT SEVERE EQUIL TOTAL  TOTAL      STEP       INC OF       DOF    IF
               DISCON ITERS ITERS  TIME/    TIME/LPF    TIME/LPF    MONITOR RIKS
               ITERS               FREQ
   1     1   1U    0     4     4  0.00       0.00       1.000     
   1     1   2U    0     5     5  0.00       0.00       0.2500    
   1     1   3     0     2     2  0.000122   0.000122   0.0001221 
   1     2   1U    0     2     2  0.000122   0.000122   0.0001221 
   1     2   2     0     2     2  0.000140   0.000140   1.758e-05 
   1     3   1     0     2     2  0.000157   0.000157   1.758e-05 
   1     4   1U    0     2     2  0.000157   0.000157   1.758e-05 
   1     4   2     0     2     2  0.000171   0.000171   1.324e-05 
   1     5   1     0     2     2  0.000184   0.000184   1.324e-05 
   1     6   1     0     2     2  0.000197   0.000197   1.324e-05 
   1     7   1     0     2     2  0.000210   0.000210   1.324e-05 
   1     8   1     0     2     2  0.000223   0.000223   1.324e-05 
   1     9   1     0     2     2  0.000237   0.000237   1.324e-05 
   1    10   1     0     2     2  0.000250   0.000250   1.324e-05 
   1    11   1     0     2     2  0.000263   0.000263   1.324e-05 
   1    12   1     0     2     2  0.000276   0.000276   1.324e-05 
   1    13   1     0     2     2  0.000290   0.000290   1.324e-05 
   1    14   1     0     2     2  0.000303   0.000303   1.324e-05 
   1    15   1     0     2     2  0.000316   0.000316   1.324e-05 
   1    16   1     0     2     2  0.000329   0.000329   1.324e-05 
   1    17   1     0     2     2  0.000343   0.000343   1.324e-05 
   1    18   1     0     2     2  0.000358   0.000358   1.543e-05 
   1    19   1     0     2     2  0.000374   0.000374   1.543e-05 
   1    20   1     0     2     2  0.000389   0.000389   1.543e-05 
   1    21   1     0     2     2  0.000404   0.000404   1.543e-05 
   1    22   1     0     2     2  0.000424   0.000424   1.912e-05 
   1    23   1     0     2     2  0.000443   0.000443   1.912e-05 
   1    24   1     0     2     2  0.000462   0.000462   1.912e-05 
   1    25   1     0     2     2  0.000481   0.000481   1.912e-05 
   1    26   1     0     2     2  0.000505   0.000505   2.390e-05 
   1    27   1     0     2     2  0.000529   0.000529   2.390e-05 
   1    28   1     0     2     2  0.000557   0.000557   2.881e-05 
   1    29   1     0     2     2  0.000586   0.000586   2.881e-05 
   1    30   1     0     2     2  0.000615   0.000615   2.881e-05 
   1    31   1     0     1     1  0.000644   0.000644   2.881e-05 
   1    32   1     0     2     2  0.000680   0.000680   3.602e-05 
   1    33   1     0     2     2  0.000725   0.000725   4.502e-05 
   1    34   1     0     2     2  0.000775   0.000775   4.990e-05 
   1    35   1     0     2     2  0.000825   0.000825   4.990e-05 
   1    36   1     0     2     2  0.000875   0.000875   4.990e-05 
   1    37   1     0     2     2  0.000937   0.000937   6.237e-05 
   1    38   1     0     2     2  0.00101    0.00101    7.796e-05 
   1    39   1     0     2     2  0.00110    0.00110    8.639e-05 
   1    40   1     0     2     2  0.00119    0.00119    8.639e-05 
   1    41   1     0     2     2  0.00127    0.00127    8.639e-05 
   1    42   1     0     2     2  0.00138    0.00138    0.0001080 
   1    43   1     0     2     2  0.00152    0.00152    0.0001350 
   1    44   1     0     2     2  0.00169    0.00169    0.0001687 
   1    45   1     0     2     2  0.00190    0.00190    0.0002109 
   1    46   1     0     2     2  0.00216    0.00216    0.0002637 
   1    47   1     0     2     2  0.00249    0.00249    0.0003296 
   1    48   1     0     2     2  0.00286    0.00286    0.0003659 
   1    49   1     0     2     2  0.00322    0.00322    0.0003659 
   1    50   1     0     2     2  0.00359    0.00359    0.0003659 
   1    51   1     0     2     2  0.00395    0.00395    0.0003659 
   1    52   1     0     2     2  0.00432    0.00432    0.0003659 
   1    53   1U    0     2     2  0.00432    0.00432    0.0003659 
   1    53   2     0     2     2  0.00461    0.00461    0.0002912 
   1    54   1     0     2     2  0.00490    0.00490    0.0002912 
   1    55   1     0     2     2  0.00519    0.00519    0.0002912 
   1    56   1     0     2     2  0.00548    0.00548    0.0002912 
   1    57   1     0     2     2  0.00578    0.00578    0.0002912 
   1    58   1     0     2     2  0.00607    0.00607    0.0002912 
   1    59   1     0     2     2  0.00636    0.00636    0.0002912 
   1    60   1     0     2     2  0.00665    0.00665    0.0002912 
   1    61   1     0     2     2  0.00694    0.00694    0.0002912 
   1    62   1     0     2     2  0.00723    0.00723    0.0002912 
   1    63   1     0     2     2  0.00752    0.00752    0.0002912 
   1    64   1     0     2     2  0.00781    0.00781    0.0002912 
   1    65   1     0     2     2  0.00811    0.00811    0.0002912 
   1    66   1     0     2     2  0.00840    0.00840    0.0002912 
   1    67   1     0     2     2  0.00869    0.00869    0.0002912 
   1    68   1     0     2     2  0.00902    0.00902    0.0003305 
   1    69   1     0     2     2  0.00935    0.00935    0.0003305 
   1    70   1     0     2     2  0.00968    0.00968    0.0003305 
   1    71   1     0     2     2  0.0100     0.0100     0.0003305 
   1    72   1     0     2     2  0.0103     0.0103     0.0003305 
   1    73   1     0     2     2  0.0107     0.0107     0.0003919 
   1    74   1     0     2     2  0.0111     0.0111     0.0003919 
   1    75   1     0     2     2  0.0115     0.0115     0.0003919 
   1    76   1     0     2     2  0.0119     0.0119     0.0003919 
   1    77   1     0     2     2  0.0124     0.0124     0.0004803 
   1    78   1     0     2     2  0.0129     0.0129     0.0004803 
   1    79   1     0     2     2  0.0133     0.0133     0.0004803 
   1    80   1     0     2     2  0.0138     0.0138     0.0004803 
   1    81   1     0     2     2  0.0144     0.0144     0.0006004 
   1    82   1     0     2     2  0.0150     0.0150     0.0006004 
   1    83   1     0     2     2  0.0156     0.0156     0.0006004 
   1    84   1     0     2     2  0.0162     0.0162     0.0006004 
   1    85   1     0     2     2  0.0170     0.0170     0.0007505 
   1    86   1     0     2     2  0.0179     0.0179     0.0008834 
   1    87   1     0     2     2  0.0187     0.0187     0.0008834 
   1    88   1     0     2     2  0.0196     0.0196     0.0008834 
   1    89   1     0     2     2  0.0205     0.0205     0.0008834 
   1    90   1     0     2     2  0.0216     0.0216     0.001104  
   1    91   1     0     2     2  0.0230     0.0230     0.001369  
   1    92   1     0     2     2  0.0244     0.0244     0.001369  
   1    93   1     0     2     2  0.0257     0.0257     0.001369  
   1    94   1     0     2     2  0.0271     0.0271     0.001369  
   1    95   1     0     2     2  0.0288     0.0288     0.001711  
   1    96   1     0     2     2  0.0309     0.0309     0.002139  
   1    97   1     0     2     2  0.0336     0.0336     0.002673  
   1    98   1     0     2     2  0.0363     0.0363     0.002673  
   1    99   1     0     3     3  0.0395     0.0395     0.003207  
   1   100   1     0     2     2  0.0427     0.0427     0.003207  
   1   101   1     0     3     3  0.0467     0.0467     0.004009  
   1   102   1     0     3     3  0.0517     0.0517     0.005011  
   1   103   1     0     3     3  0.0580     0.0580     0.006264  
   1   104   1     0     4     4  0.0658     0.0658     0.007830  
   1   105   1     0     4     4  0.0756     0.0756     0.009788  
   1   106   1     0     4     4  0.0878     0.0878     0.01224   
   1   107   1     0     3     3  0.100      0.100      0.01224   
   1   108   1     0     3     3  0.112      0.112      0.01224   
   1   109   1U    0     4     4  0.112      0.112      0.01224   
   1   109   2     0     3     3  0.122      0.122      0.009831  
   1   110   1     0     4     4  0.132      0.132      0.009831  
   1   111   1U    0     3     3  0.132      0.132      0.009831  
   1   111   2     0     2     2  0.140      0.140      0.008061  
   1   112   1     0     2     2  0.148      0.148      0.008061  
   1   113   1     0     3     3  0.156      0.156      0.008061  
   1   114   1     0     3     3  0.164      0.164      0.008061  
   1   115   1U    0     3     3  0.164      0.164      0.008061  
   1   115   2     0     2     2  0.171      0.171      0.006694  
   1   116   1     0     2     2  0.178      0.178      0.006694  
   1   117   1     0     2     2  0.184      0.184      0.006694  
   1   118   1     0     2     2  0.191      0.191      0.006694  
   1   119   1     0     2     2  0.198      0.198      0.006694  
   1   120   1     0     2     2  0.204      0.204      0.006694  
   1   121   1     0     2     2  0.211      0.211      0.006694  
   1   122   1     0     2     2  0.218      0.218      0.006694  
   1   123   1     0     2     2  0.224      0.224      0.006694  
   1   124   1     0     2     2  0.231      0.231      0.006694  
   1   125   1     0     2     2  0.238      0.238      0.006694  
   1   126   1     0     2     2  0.245      0.245      0.006694  
   1   127   1     0     2     2  0.251      0.251      0.006694  
   1   128   1     0     2     2  0.258      0.258      0.006694  
   1   129   1     0     2     2  0.265      0.265      0.006694  
   1   130   1     0     2     2  0.271      0.271      0.006694  
   1   131   1     0     2     2  0.278      0.278      0.006694  
   1   132   1     0     2     2  0.286      0.286      0.007499  
   1   133   1     0     2     2  0.293      0.293      0.007499  
   1   134   1     0     2     2  0.301      0.301      0.007499  
   1   135   1     0     2     2  0.308      0.308      0.007499  
   1   136   1     0     2     2  0.316      0.316      0.007499  
   1   137   1     0     2     2  0.324      0.324      0.008812  
   1   138   1     0     2     2  0.333      0.333      0.008812  
   1   139   1     0     2     2  0.342      0.342      0.008812  
   1   140   1     0     2     2  0.351      0.351      0.008812  
   1   141   1     0     2     2  0.360      0.360      0.008812  
   1   142   1     0     2     2  0.370      0.370      0.01090   
   1   143   1     0     2     2  0.381      0.381      0.01090   
   1   144   1     0     2     2  0.392      0.392      0.01090   
   1   145   1     0     2     2  0.403      0.403      0.01090   
   1   146   1     0     2     2  0.414      0.414      0.01090   
   1   147   1     0     2     2  0.428      0.428      0.01363   
   1   148   1     0     2     2  0.441      0.441      0.01363   
   1   149   1     0     2     2  0.455      0.455      0.01363   
   1   150   1     0     2     2  0.469      0.469      0.01363   
   1   151   1     0     2     2  0.486      0.486      0.01704   
   1   152   1     0     2     2  0.503      0.503      0.01704   
   1   153   1     0     2     2  0.520      0.520      0.01704   
   1   154   1     0     2     2  0.537      0.537      0.01704   
   1   155   1     0     2     2  0.558      0.558      0.02130   
   1   156   1     0     2     2  0.583      0.583      0.02467   
   1   157   1     0     2     2  0.607      0.607      0.02467   
   1   158   1     0     2     2  0.632      0.632      0.02467   
   1   159   1     0     2     2  0.657      0.657      0.02467   
   1   160   1     0     2     2  0.688      0.688      0.03083   
   1   161   1     0     2     2  0.726      0.726      0.03854   
   1   162   1     0     2     2  0.772      0.772      0.04595   
   1   163   1     0     2     2  0.818      0.818      0.04595   
   1   164   1     0     2     2  0.864      0.864      0.04595   
   1   165   1     0     2     2  0.921      0.921      0.05744   
   1   166   1     0     3     3  0.993      0.993      0.07180   
   1   167   1     0     2     2  1.00       1.00       0.006800  
   2     1   1U    0     5     5  1.00       0.00       1.000     
   2     1   2U    0     6     6  1.00       0.00       0.2500    
   2     1   3U    0     5     5  1.00       0.00       0.06250   
   2     1   4     0     1     1  1.00       1.11e-06   1.113e-06 
   2     2   1     0     1     1  1.00       2.23e-06   1.113e-06 
   2     3   1     0     1     1  1.00       3.34e-06   1.113e-06 
   2     4   1     0     1     1  1.00       4.73e-06   1.391e-06 
   2     5   1     0     1     1  1.00       6.47e-06   1.739e-06 
   2     6   1     0     1     1  1.00       8.64e-06   2.174e-06 
   2     7   1     0     1     1  1.00       1.14e-05   2.717e-06 
   2     8   1     0     1     1  1.00       1.48e-05   3.396e-06 
   2     9   1     0     1     1  1.00       1.90e-05   4.246e-06 
   2    10   1     0     1     1  1.00       2.43e-05   5.307e-06 
   2    11   1     0     1     1  1.00       3.09e-05   6.634e-06 
   2    12   1     0     1     1  1.00       3.92e-05   8.292e-06 
   2    13   1     0     1     1  1.00       4.96e-05   1.037e-05 
   2    14   1     0     1     1  1.00       6.26e-05   1.296e-05 
   2    15   1     0     1     1  1.00       7.88e-05   1.620e-05 
   2    16   1     0     1     1  1.00       9.90e-05   2.024e-05 
   2    17   1     0     1     1  1.00       0.000124   2.531e-05 
   2    18   1     0     1     1  1.00       0.000156   3.163e-05 
   2    19   1     0     1     1  1.00       0.000195   3.954e-05 
   2    20   1     0     1     1  1.00       0.000245   4.942e-05 
   2    21   1     0     1     1  1.00       0.000307   6.178e-05 
   2    22   1     0     1     1  1.00       0.000384   7.723e-05 
   2    23   1     0     1     1  1.00       0.000480   9.653e-05 
   2    24   1     0     1     1  1.00       0.000601   0.0001207 
   2    25   1     0     1     1  1.00       0.000752   0.0001508 
   2    26   1     0     2     2  1.00       0.000940   0.0001885 
   2    27   1     0     1     1  1.00       0.00118    0.0002357 
   2    28   1     0     1     1  1.00       0.00147    0.0002946 
   2    29   1     0     2     2  1.00       0.00184    0.0003682 
   2    30   1     0     2     2  1.00       0.00230    0.0004603 
   2    31   1     0     2     2  1.00       0.00287    0.0005754 
   2    32   1     0     2     2  1.00       0.00359    0.0007192 
   2    33   1     0     2     2  1.00       0.00431    0.0007192 
   2    34   1     0     2     2  1.01       0.00503    0.0007192 
   2    35   1     0     2     2  1.01       0.00575    0.0007192 
   2    36   1     0     2     2  1.01       0.00665    0.0008990 
   2    37   1     0     2     2  1.01       0.00777    0.001124  
   2    38   1     0     2     2  1.01       0.00890    0.001124  
   2    39   1     0     2     2  1.01       0.0100     0.001124  
   2    40   1     0     2     2  1.01       0.0111     0.001124  
   2    41   1     0     2     2  1.01       0.0123     0.001124  
   2    42   1     0     2     2  1.01       0.0134     0.001124  
   2    43   1     0     2     2  1.01       0.0145     0.001124  
   2    44   1     0     2     2  1.02       0.0156     0.001124  
   2    45   1     0     2     2  1.02       0.0170     0.001359  
   2    46   1     0     2     2  1.02       0.0184     0.001359  
   2    47   1     0     2     2  1.02       0.0197     0.001359  
   2    48   1     0     2     2  1.02       0.0211     0.001359  
   2    49   1     0     2     2  1.02       0.0224     0.001359  
   2    50   1     0     2     2  1.02       0.0238     0.001359  
   2    51   1     0     2     2  1.03       0.0252     0.001359  
   2    52   1     0     2     2  1.03       0.0265     0.001359  
   2    53   1     0     2     2  1.03       0.0279     0.001359  
   2    54   1     0     2     2  1.03       0.0292     0.001359  
   2    55   1     0     2     2  1.03       0.0308     0.001566  
   2    56   1     0     2     2  1.03       0.0324     0.001566  
   2    57   1     0     2     2  1.03       0.0339     0.001566  
   2    58   1     0     2     2  1.04       0.0355     0.001566  
   2    59   1     0     2     2  1.04       0.0371     0.001566  
   2    60   1     0     2     2  1.04       0.0389     0.001801  
   2    61   1     0     2     2  1.04       0.0407     0.001801  
   2    62   1     0     2     2  1.04       0.0425     0.001801  
   2    63   1     0     2     2  1.04       0.0443     0.001801  
   2    64   1     0     2     2  1.05       0.0464     0.002159  
   2    65   1     0     2     2  1.05       0.0486     0.002159  
   2    66   1     0     2     2  1.05       0.0507     0.002159  
   2    67   1     0     2     2  1.05       0.0529     0.002159  
   2    68   1     0     2     2  1.06       0.0556     0.002677  
   2    69   1     0     2     2  1.06       0.0583     0.002677  
   2    70   1     0     2     2  1.06       0.0609     0.002677  
   2    71   1     0     2     2  1.06       0.0636     0.002677  
   2    72   1     0     2     2  1.07       0.0670     0.003346  
   2    73   1     0     2     2  1.07       0.0703     0.003346  
   2    74   1     0     2     2  1.07       0.0742     0.003900  
   2    75   1     0     2     2  1.08       0.0781     0.003900  
   2    76   1     0     2     2  1.08       0.0825     0.004439  
   2    77   1     0     2     2  1.09       0.0870     0.004439  
   2    78   1     0     2     2  1.09       0.0923     0.005353  
   2    79   1     0     2     2  1.10       0.0977     0.005353  
   2    80   1     0     2     2  1.10       0.104      0.006367  
   2    81   1     0     2     2  1.11       0.110      0.006367  
   2    82   1     0     2     2  1.12       0.118      0.007726  
   2    83   1     0     2     2  1.13       0.126      0.007726  
   2    84   1     0     2     2  1.14       0.136      0.009658  
   2    85   1     0     2     2  1.15       0.145      0.009658  
   2    86   1     0     2     2  1.16       0.157      0.01207   
   2    87   1     0     2     2  1.17       0.169      0.01207   
   2    88   1     0     2     2  1.18       0.184      0.01509   
   2    89   1     0     2     2  1.20       0.200      0.01509   
   2    90   1     0     2     2  1.21       0.215      0.01509   
   2    91   1U    0     2     2  1.21       0.215      0.01509   
   2    91   2     0     2     2  1.23       0.225      0.01067   
   2    92   1     0     2     2  1.24       0.236      0.01067   
   2    93   1U    0     2     2  1.24       0.236      0.01067   
   2    93   2     0     2     2  1.24       0.245      0.008693  
   2    94   1     0     2     2  1.25       0.253      0.008693  
   2    95   1     0     2     2  1.26       0.262      0.008693  
   2    96   1U    0     2     2  1.26       0.262      0.008693  
   2    96   2     0     2     2  1.27       0.269      0.007281  
   2    97   1     0     2     2  1.28       0.277      0.007281  
   2    98   1     0     2     2  1.28       0.284      0.007281  
   2    99   1     0     2     2  1.29       0.291      0.007281  
   2   100   1     0     2     2  1.30       0.298      0.007281  
   2   101   1     0     2     2  1.31       0.306      0.007281  
   2   102   1     0     2     2  1.31       0.314      0.008141  
   2   103   1     0     2     2  1.32       0.322      0.008141  
   2   104   1     0     2     2  1.33       0.330      0.008141  
   2   105   1     0     2     2  1.34       0.338      0.008141  
   2   106   1     0     2     2  1.35       0.346      0.008141  
   2   107   1     0     2     2  1.35       0.355      0.008141  
   2   108   1U    0     2     2  1.35       0.355      0.008141  
   2   108   2     0     2     2  1.36       0.361      0.006836  
   2   109   1     0     2     2  1.37       0.368      0.006836  
   2   110   1     0     2     2  1.38       0.375      0.006836  
   2   111   1     0     2     2  1.38       0.382      0.006836  
   2   112   1     0     2     2  1.39       0.389      0.006836  
   2   113   1     0     2     2  1.40       0.396      0.006836  
   2   114   1     0     2     2  1.40       0.402      0.006836  
   2   115   1     0     2     2  1.41       0.409      0.006836  
   2   116   1     0     2     2  1.42       0.416      0.006836  
   2   117   1     0     2     2  1.42       0.423      0.006836  
   2   118   1     0     2     2  1.43       0.430      0.006836  
   2   119   1     0     2     2  1.44       0.437      0.007622  
   2   120   1     0     2     2  1.45       0.445      0.007622  
   2   121   1     0     2     2  1.45       0.453      0.007622  
   2   122   1     0     2     2  1.46       0.460      0.007622  
   2   123   1     0     2     2  1.47       0.468      0.007622  
   2   124   1     0     2     2  1.48       0.475      0.007622  
   2   125   1     0     2     2  1.48       0.484      0.008874  
   2   126   1     0     2     2  1.49       0.493      0.008874  
   2   127   1     0     2     2  1.50       0.502      0.008874  
   2   128   1     0     2     2  1.51       0.511      0.008874  
   2   129   1     0     2     2  1.52       0.520      0.008874  
   2   130   1     0     2     2  1.53       0.530      0.01005   
   2   131   1     0     2     2  1.54       0.540      0.01005   
   2   132   1     0     2     2  1.55       0.550      0.01005   
   2   133   1     0     2     2  1.56       0.560      0.01005   
   2   134   1     0     2     2  1.57       0.570      0.01005   
   2   135   1     0     2     2  1.58       0.580      0.01005   
   2   136   1     0     2     2  1.59       0.592      0.01209   
   2   137   1     0     2     2  1.60       0.604      0.01209   
   2   138   1     0     1     1  1.62       0.616      0.01209   
   2   139   1     0     1     1  1.63       0.629      0.01209   
   2   140   1     0     1     1  1.64       0.641      0.01209   
   2   141   1     0     1     1  1.65       0.653      0.01209   
   2   142   1     0     1     1  1.67       0.667      0.01454   
   2   143   1     0     1     1  1.68       0.682      0.01454   
   2   144   1     0     1     1  1.70       0.696      0.01454   
   2   145   1     0     1     1  1.71       0.711      0.01454   
   2   146   1     0     1     1  1.73       0.728      0.01751   
   2   147   1     0     1     1  1.75       0.746      0.01751   
   2   148   1     0     1     1  1.76       0.763      0.01751   
   2   149   1     0     1     1  1.78       0.781      0.01751   
   2   150   1     0     2     2  1.80       0.803      0.02189   
   2   151   1U    0     2     2  1.80       0.803      0.02189   
   2   151   2     0     2     2  1.82       0.820      0.01757   
   2   152   1     0     1     1  1.84       0.838      0.01757   
   2   153   1     0     2     2  1.86       0.856      0.01757   
   2   154   1     0     1     1  1.87       0.873      0.01757   
   2   155   1     0     2     2  1.89       0.891      0.01757   
   2   156   1     0     1     1  1.91       0.908      0.01757   
   2   157   1     0     2     2  1.93       0.926      0.01757   
   2   158   1     0     1     1  1.94       0.943      0.01757   
   2   159   1     0     2     2  1.96       0.961      0.01757   
   2   160   1     0     1     1  1.98       0.979      0.01757   
   2   161   1     0     2     2  2.00       0.996      0.01757   
   2   162   1     0     1     1  2.00       1.00       0.003931  
                          
 THE ANALYSIS HAS COMPLETED SUCCESSFULLY
