*Heading
** Job name: Box_Implicit_Contact_3_NonLin_Friction Model name: Box_Implicit_Contact_NonLinear
** Generated by: Abaqus/CAE 2022
*Preprint, echo=NO, model=NO, history=NO, contact=NO
**
** PARTS
**
*Part, name=Part-1
*Node
      1,           0.,           0.,           0.
      2,          6.5,           0.,           0.
      3,          13.,           0.,           0.
      4,         19.5,           0.,           0.
      5,          26.,           0.,           0.
      6,         32.5,           0.,           0.
      7,          39.,           0.,           0.
      8,         45.5,           0.,           0.
      9,          52.,           0.,           0.
     10,         58.5,           0.,           0.
     11,          65.,           0.,           0.
     12,           0.,          6.5,           0.
     13,          6.5,          6.5,           0.
     14,          13.,          6.5,           0.
     15,         19.5,          6.5,           0.
     16,          26.,          6.5,           0.
     17,         32.5,          6.5,           0.
     18,          39.,          6.5,           0.
     19,         45.5,          6.5,           0.
     20,          52.,          6.5,           0.
** ... 101 like lines cut
*Element, type=S4
  1,   1,   2,  13,  12
  2,   2,   3,  14,  13
  3,   3,   4,  15,  14
  4,   4,   5,  16,  15
  5,   5,   6,  17,  16
  6,   6,   7,  18,  17
  7,   7,   8,  19,  18
  8,   8,   9,  20,  19
  9,   9,  10,  21,  20
 10,  10,  11,  22,  21
 11,  12,  13,  24,  23
 12,  13,  14,  25,  24
 13,  14,  15,  26,  25
 14,  15,  16,  27,  26
 15,  16,  17,  28,  27
 16,  17,  18,  29,  28
 17,  18,  19,  30,  29
 18,  19,  20,  31,  30
 19,  20,  21,  32,  31
 20,  21,  22,  33,  32
** ... 80 like lines cut
*Nset, nset=Set-2, generate
   1,  121,    1
*Elset, elset=Set-2, generate
   1,  100,    1
** Section: Paper_Shell
*Shell Section, elset=Set-2, material=Paper_Material
0.6, 5
*End Part
**  
*Part, name=Part-2
*Node
      1,           0.,           0.,           0.
      2,          6.5,           0.,           0.
      3,          13.,           0.,           0.
      4,         19.5,           0.,           0.
      5,          26.,           0.,           0.
      6,         32.5,           0.,           0.
      7,          39.,           0.,           0.
      8,         45.5,           0.,           0.
      9,          52.,           0.,           0.
     10,         58.5,           0.,           0.
     11,          65.,           0.,           0.
     12,           0.,          6.5,           0.
     13,          6.5,          6.5,           0.
     14,          13.,          6.5,           0.
     15,         19.5,          6.5,           0.
     16,          26.,          6.5,           0.
     17,         32.5,          6.5,           0.
     18,          39.,          6.5,           0.
     19,         45.5,          6.5,           0.
     20,          52.,          6.5,           0.
** ... 101 like lines cut
*Element, type=S4R
  1,   1,   2,  13,  12
  2,   2,   3,  14,  13
  3,   3,   4,  15,  14
  4,   4,   5,  16,  15
  5,   5,   6,  17,  16
  6,   6,   7,  18,  17
  7,   7,   8,  19,  18
  8,   8,   9,  20,  19
  9,   9,  10,  21,  20
 10,  10,  11,  22,  21
 11,  12,  13,  24,  23
 12,  13,  14,  25,  24
 13,  14,  15,  26,  25
 14,  15,  16,  27,  26
 15,  16,  17,  28,  27
 16,  17,  18,  29,  28
 17,  18,  19,  30,  29
 18,  19,  20,  31,  30
 19,  20,  21,  32,  31
 20,  21,  22,  33,  32
** ... 80 like lines cut
*Nset, nset=Set-2, generate
   1,  121,    1
*Elset, elset=Set-2, generate
   1,  100,    1
** Section: Paper_Shell
*Shell Section, elset=Set-2, material=Paper_Material
0.6, 5
*End Part
**  
*Part, name=Part-3
*End Part
**  
**
** ASSEMBLY
**
*Assembly, name=Assembly
**  
*Instance, name=Part-1-1, part=Part-1
19.0380592228744,           0., 45.9619407771256
19.0380592228744,           0., 45.9619407771256, 19.0380592228744, 1.0000000139546, 45.9619407771256, 45.0000000171299
*End Instance
**  
*Instance, name=Part-2-1, part=Part-2
         65.,           0.,           0.
         65.,           0.,           0.,          65., -1.0000000139546,           0., 45.0000000171299
*End Instance
**  
*Instance, name=Part-1-2, part=Part-1
   19.038059,           0.,    45.961941
   19.038059,           0.,    45.961941,    19.038059, -1.0000000139546,    45.961941, 45.0000000171299
*End Instance
**  
*Instance, name=Part-1-3, part=Part-1
  110.961941,           0.,    45.961941
  110.961941,           0.,    45.961941,   110.961941, 0.999999990362471,    45.961941, 225.000000192033
*End Instance
**  
*Instance, name=Part-3-1, part=Part-3
        -35.,        -67.5,          -1.
*Node
      1,           0.,           0.,           0.
      2,          20.,           0.,           0.
      3,          40.,           0.,           0.
      4,          60.,           0.,           0.
      5,          80.,           0.,           0.
      6,         100.,           0.,           0.
      7,         120.,           0.,           0.
      8,         140.,           0.,           0.
      9,         160.,           0.,           0.
     10,         180.,           0.,           0.
     11,         200.,           0.,           0.
     12,           0.,          20.,           0.
     13,          20.,          20.,           0.
     14,          40.,          20.,           0.
     15,          60.,          20.,           0.
     16,          80.,          20.,           0.
     17,         100.,          20.,           0.
     18,         120.,          20.,           0.
     19,         140.,          20.,           0.
     20,         160.,          20.,           0.
** ... 101 like lines cut
*Element, type=R3D4
  1,   1,   2,  13,  12
  2,   2,   3,  14,  13
  3,   3,   4,  15,  14
  4,   4,   5,  16,  15
  5,   5,   6,  17,  16
  6,   6,   7,  18,  17
  7,   7,   8,  19,  18
  8,   8,   9,  20,  19
  9,   9,  10,  21,  20
 10,  10,  11,  22,  21
 11,  12,  13,  24,  23
 12,  13,  14,  25,  24
 13,  14,  15,  26,  25
 14,  15,  16,  27,  26
 15,  16,  17,  28,  27
 16,  17,  18,  29,  28
 17,  18,  19,  30,  29
 18,  19,  20,  31,  30
 19,  20,  21,  32,  31
 20,  21,  22,  33,  32
** ... 80 like lines cut
*Node
    122,           0.,           0.,           0.
*Nset, nset=Part-3-1-RefPt_, internal
122, 
*Elset, elset=Part-3-1, generate
   1,  100,    1
*End Instance
**  
*Node
      1,   110.961945,         32.5,   45.9619408
*Node
      2,   19.0380592,         32.5,   45.9619408
*Element, type=CONN3D2
1, 1, 2
*Connector Section, elset=Wire-1-Set-2, behavior=ConnSect-2
Axial,
"Datum csys-2",
*Nset, nset=Hinge-1-1, instance=Part-1-1, generate
   1,  111,   11
*Elset, elset=Hinge-1-1, instance=Part-1-1, generate
  1,  91,  10
*Nset, nset=Hinge-1-2, instance=Part-1-2, generate
   1,  111,   11
*Elset, elset=Hinge-1-2, instance=Part-1-2, generate
  1,  91,  10
*Nset, nset=Hinge-2-1, instance=Part-1-1, generate
  11,  121,   11
*Elset, elset=Hinge-2-1, instance=Part-1-1, generate
  10,  100,   10
*Nset, nset=Hinge-2-3, instance=Part-2-1, generate
   1,  111,   11
*Elset, elset=Hinge-2-3, instance=Part-2-1, generate
  1,  91,  10
*Nset, nset=Hinge-3-2, instance=Part-1-2, generate
  11,  121,   11
*Elset, elset=Hinge-3-2, instance=Part-1-2, generate
  10,  100,   10
*Nset, nset=Hinge-3-4, instance=Part-1-3, generate
  11,  121,   11
*Elset, elset=Hinge-3-4, instance=Part-1-3, generate
  10,  100,   10
*Nset, nset=Hinge-4-3, instance=Part-2-1, generate
  11,  121,   11
*Elset, elset=Hinge-4-3, instance=Part-2-1, generate
  10,  100,   10
*Nset, nset=Hinge-4-4, instance=Part-1-3, generate
   1,  111,   11
*Elset, elset=Hinge-4-4, instance=Part-1-3, generate
  1,  91,  10
*Nset, nset=Node_1_Spring, instance=Part-2-1
 66,
*Nset, nset=Node_2_Spring, instance=Part-1-2
 56,
*Nset, nset=Plate_1, instance=Part-1-1, generate
   1,  121,    1
*Elset, elset=Plate_1, instance=Part-1-1, generate
   1,  100,    1
*Nset, nset=RF_1_Spring
 1,
*Nset, nset=RF_2_Spring
 2,
*Nset, nset=Set-4, instance=Part-1-1, generate
   1,  111,   11
*Elset, elset=Set-4, instance=Part-1-1, generate
  1,  91,  10
*Nset, nset=Set-11, instance=Part-1-1, generate
  11,  121,   11
*Elset, elset=Set-11, instance=Part-1-1, generate
  10,  100,   10
*Nset, nset=Set-15, instance=Part-1-2, generate
  11,  121,   11
*Elset, elset=Set-15, instance=Part-1-2, generate
  10,  100,   10
*Nset, nset=Set-18, instance=Part-2-1, generate
   1,  111,   11
*Elset, elset=Set-18, instance=Part-2-1, generate
  1,  91,  10
*Nset, nset=Set-19, instance=Part-1-3, generate
  11,  121,   11
*Elset, elset=Set-19, instance=Part-1-3, generate
  10,  100,   10
*Nset, nset=Set-24, instance=Part-1-2, generate
   1,  111,   11
*Elset, elset=Set-24, instance=Part-1-2, generate
  1,  91,  10
*Nset, nset=Set-25, instance=Part-2-1, generate
   1,  111,   11
*Elset, elset=Set-25, instance=Part-2-1, generate
  1,  91,  10
*Nset, nset=Set-26, instance=Part-1-3, generate
  11,  121,   11
*Elset, elset=Set-26, instance=Part-1-3, generate
  10,  100,   10
*Nset, nset=Set-30
 1, 2
*Nset, nset=Set-31
 1, 2
*Nset, nset=Set-40
 1, 2
*Nset, nset=Set-41, instance=Part-1-3, generate
  11,  121,   11
*Elset, elset=Set-41, instance=Part-1-3, generate
  10,  100,   10
*Nset, nset=Set-42, instance=Part-3-1, generate
   1,  121,    1
*Elset, elset=Set-42, instance=Part-3-1, generate
   1,  100,    1
*Nset, nset=Wire-1-Set-2
 1, 2
*Elset, elset=Wire-1-Set-2
 1,
*Nset, nset=m_Set-32
 1,
*Nset, nset=m_Set-34
 2,
*Nset, nset=s_Set-32, instance=Part-1-3, generate
   1,  111,   11
*Elset, elset=s_Set-32, instance=Part-1-3, generate
  1,  91,  10
*Nset, nset=s_Set-34, instance=Part-1-2, generate
   1,  111,   11
*Elset, elset=s_Set-34, instance=Part-1-2, generate
  1,  91,  10
*Surface, type=NODE, name=Hinge-1-1_CNS_, internal
Hinge-1-1, 1.
*Surface, type=NODE, name=Hinge-1-2_CNS_, internal
Hinge-1-2, 1.
*Surface, type=NODE, name=Hinge-2-1_CNS_, internal
Hinge-2-1, 1.
*Surface, type=NODE, name=Hinge-2-3_CNS_, internal
Hinge-2-3, 1.
*Surface, type=NODE, name=Hinge-3-2_CNS_, internal
Hinge-3-2, 1.
*Surface, type=NODE, name=Hinge-3-4_CNS_, internal
Hinge-3-4, 1.
*Surface, type=NODE, name=Hinge-4-3_CNS_, internal
Hinge-4-3, 1.
*Surface, type=NODE, name=Hinge-4-4_CNS_, internal
Hinge-4-4, 1.
*Rigid Body, ref node=Part-3-1.Part-3-1-RefPt_, elset=Part-3-1.Part-3-1
*Orientation, name="Datum csys-2"
         -1.,           0.,           0.,           0.,           1.,           0.
1, 0.
** Constraint: Eq_1-1
*Equation
2
RF_1_Spring, 1, 1.
Node_1_Spring, 1, -1.
** Constraint: Eq_1-2
*Equation
2
RF_1_Spring, 2, 1.
Node_1_Spring, 2, -1.
** Constraint: Eq_1-3
*Equation
2
RF_1_Spring, 3, 1.
Node_1_Spring, 3, -1.
** Constraint: Eq_2-1
*Equation
2
RF_2_Spring, 1, 1.
Node_2_Spring, 1, -1.
** Constraint: Eq_2-2
*Equation
2
RF_2_Spring, 2, 1.
Node_2_Spring, 2, -1.
** Constraint: Eq_2-3
*Equation
2
RF_2_Spring, 3, 1.
Node_2_Spring, 3, -1.
** Constraint: Hinge1
*Tie, name=Hinge1, adjust=yes, no rotation
Hinge-1-2_CNS_, Hinge-1-1_CNS_
** Constraint: Hinge2
*Tie, name=Hinge2, adjust=yes, no rotation
Hinge-2-3_CNS_, Hinge-2-1_CNS_
** Constraint: Hinge3
*Tie, name=Hinge3, adjust=yes, no rotation
Hinge-3-4_CNS_, Hinge-3-2_CNS_
** Constraint: Hinge4
*Tie, name=Hinge4, adjust=yes, no rotation
Hinge-4-4_CNS_, Hinge-4-3_CNS_
*End Assembly
*Connector Behavior, name=ConnSect-2
*Connector Constitutive Reference
91.92, , , , , 
*Connector Elasticity, component=1
 0.7871,
*Amplitude, name=Amp-1, definition=SMOOTH STEP
             0.,              0.,              1.,              1.
** 
** MATERIALS
** 
*Material, name=Paper_Material
*Density
 8e-10,
*Elastic
2000., 0.3
** 
** INTERACTION PROPERTIES
** 
*Surface Interaction, name=IntProp-1
1.,
*Friction, slip tolerance=0.005
 0.1,
** 
** BOUNDARY CONDITIONS
** 
** Name: BC-3 Type: Symmetry/Antisymmetry/Encastre
*Boundary
Set-42, ENCASTRE
** 
** INTERACTIONS
** 
** Interaction: Int-1
*Contact
*Contact Inclusions, ALL EXTERIOR
*Contact Property Assignment
 ,  , IntProp-1
** ----------------------------------------------------------------
** 
** STEP: Step-1
** 
*Step, name=Step-1, nlgeom=YES, inc=10000
*Dynamic
0.1,1.,1e-10,0.1
** 
** BOUNDARY CONDITIONS
** 
** Name: BC-2 Type: Displacement/Rotation
*Boundary
Hinge-3-2, 1, 1
Hinge-3-2, 3, 3, -80.
** 
** LOADS
** 
** Name: Load-1   Type: Gravity
*Dload
, GRAV, 9810., 0., 0., -1.
** 
** OUTPUT REQUESTS
** 
*Restart, write, frequency=0
** 
** FIELD OUTPUT: F-Output-1
** 
*Output, field, variable=PRESELECT
** 
** HISTORY OUTPUT: H-Output-1
** 
*Output, history, variable=PRESELECT
*End Step
** ----------------------------------------------------------------
** 
** STEP: Step-2
** 
*Step, name=Step-2, nlgeom=YES, inc=100000
*Dynamic
1.,1.,1e-10
** 
** BOUNDARY CONDITIONS
** 
** Name: BC-2 Type: Displacement/Rotation
*Boundary, op=NEW
** Name: BC-3 Type: Symmetry/Antisymmetry/Encastre
*Boundary, op=NEW
Set-42, ENCASTRE
** 
** OUTPUT REQUESTS
** 
*Restart, write, frequency=0
** 
** FIELD OUTPUT: F-Output-1
** 
*Output, field, variable=PRESELECT, frequency=1
** 
** HISTORY OUTPUT: H-Output-1
** 
*Output, history, variable=PRESELECT, frequency=1
*End Step
