 Abaqus/Standard 2022                  DATE 19-Dez-2023 TIME 15:13:50
 SUMMARY OF JOB INFORMATION:
 STEP  INC ATT SEVERE EQUIL TOTAL  TOTAL      STEP       INC OF       DOF    IF
               DISCON ITERS ITERS  TIME/    TIME/LPF    TIME/LPF    MONITOR RIKS
               ITERS               FREQ
   1     1   1U    1     1     2  0.00       0.00       0.3000    
   1     1   2U    5     0     5  0.00       0.00       0.07500   
   1     1   3     1     2     3  0.0187     0.0187     0.01875   
   1     2   1     0     2     2  0.0375     0.0375     0.01875   
   1     3   1     0     1     1  0.0656     0.0656     0.02812   
   1     4   1     0     1     1  0.108      0.108      0.04219   
   1     5   1     0     1     1  0.171      0.171      0.06328   
   1     6   1     0     1     1  0.266      0.266      0.09492   
   1     7   1     0     2     2  0.408      0.408      0.1424    
   1     8   1     0     2     2  0.622      0.622      0.2136    
   1     9   1     2     3     5  0.922      0.922      0.3000    
   1    10   1     1     3     4  1.00       1.00       0.07803   
   2     1   1U    0     1     1  1.00       0.00       1.000     
   2     1   2U    0     1     1  1.00       0.00       0.2500    
   2     1   3     2     1     3  1.06       0.0625     0.06250   
   2     2   1U    2     1     3  1.06       0.0625     0.06250   
   2     2   2U    0     1     1  1.06       0.0625     0.01562   
   2     2   3     1     1     2  1.07       0.0664     0.003906  
   2     3   1     0     1     1  1.07       0.0723     0.005859  
   2     4   1     0     1     1  1.08       0.0811     0.008789  
   2     5   1     0     1     1  1.09       0.0942     0.01318   
   2     6   1     0     1     1  1.11       0.114      0.01978   
   2     7   1     0     1     1  1.14       0.144      0.02966   
   2     8   1     0     1     1  1.19       0.188      0.04449   
   2     9   1     0     1     1  1.25       0.255      0.06674   
   2    10   1     0     1     1  1.36       0.355      0.1001    
   2    11   1     0     1     1  1.51       0.505      0.1502    
   2    12   1U    0     1     1  1.51       0.505      0.2253    
   2    12   2     0     1     1  1.56       0.562      0.05631   
   2    13   1     0     1     1  1.65       0.646      0.08447   
   2    14   1     0     1     1  1.77       0.773      0.1267    
   2    15   1U    0     1     1  1.77       0.773      0.1901    
   2    15   2     0     1     1  1.82       0.820      0.04751   
   2    16   1     0     1     1  1.89       0.891      0.07127   
   2    17   1     0     1     1  2.00       0.998      0.1069    
   2    18   1     0     1     1  2.00       1.00       0.001621  
                          
 THE ANALYSIS HAS COMPLETED SUCCESSFULLY
