 Abaqus/Standard 2022                  DATE 19-Dez-2023 TIME 15:09:59
 SUMMARY OF JOB INFORMATION:
 STEP  INC ATT SEVERE EQUIL TOTAL  TOTAL      STEP       INC OF       DOF    IF
               DISCON ITERS ITERS  TIME/    TIME/LPF    TIME/LPF    MONITOR RIKS
               ITERS               FREQ
   1     1   1U    3     1     4  0.00       0.00       1.000     
   1     1   2U    1     1     2  0.00       0.00       0.2500    
   1     1   3U    3     1     4  0.00       0.00       0.06250   
   1     1   4     1     2     3  0.0156     0.0156     0.01562   
   1     2   1     0     4     4  0.0312     0.0312     0.01562   
   1     3   1     0     4     4  0.0547     0.0547     0.02344   
   1     4   1     0     4     4  0.0898     0.0898     0.03516   
   1     5   1     0     7     7  0.143      0.143      0.05273   
   1     6   1U    0     6     6  0.143      0.143      0.05273   
   1     6   2     0     4     4  0.156      0.156      0.01318   
   1     7   1     0     6     6  0.169      0.169      0.01318   
   1     8   1U    0     1     1  0.169      0.169      0.01318   
   1     8   2     0     2     2  0.172      0.172      0.003296  
   1     9   1     0     2     2  0.176      0.176      0.003296  
   1    10   1     0     4     4  0.180      0.180      0.004944  
   1    11   1     0     9     9  0.188      0.188      0.007416  
   1    12   1U    0     1     1  0.188      0.188      0.007416  
   1    12   2     0     4     4  0.190      0.190      0.001854  
   1    13   1     0     4     4  0.192      0.192      0.001854  
   1    14   1     0     6     6  0.194      0.194      0.002781  
   1    15   1U    0     9     9  0.194      0.194      0.002781  
   1    15   2     0     4     4  0.196      0.196      0.001390  
   1    16   1     0     5     5  0.197      0.197      0.001390  
   1    17   1     0     6     6  0.199      0.199      0.001390  
   1    18   1     3     4     7  0.200      0.200      0.001390  
   1    19   1     0     6     6  0.201      0.201      0.001390  
   1    20   1     0     4     4  0.203      0.203      0.001390  
   1    21   1     0     7     7  0.204      0.204      0.001390  
   1    22   1     0     6     6  0.206      0.206      0.001390  
   1    23   1     0     6     6  0.207      0.207      0.001390  
   1    24   1U    0     5     5  0.207      0.207      0.001390  
   1    24   2     0     3     3  0.207      0.207      0.0003476 
   1    25   1     0     2     2  0.208      0.208      0.0003476 
   1    26   1     0     3     3  0.208      0.208      0.0005214 
   1    27   1     0     3     3  0.209      0.209      0.0007821 
   1    28   1     0     5     5  0.210      0.210      0.001173  
   1    29   1     0     4     4  0.211      0.211      0.001173  
   1    30   1     0     5     5  0.212      0.212      0.001173  
   1    31   1     0     5     5  0.214      0.214      0.001173  
   1    32   1     0     5     5  0.215      0.215      0.001173  
   1    33   1     0     6     6  0.216      0.216      0.001173  
   1    34   1     0     5     5  0.217      0.217      0.001173  
   1    35   1     0     4     4  0.218      0.218      0.001173  
   1    36   1     0     4     4  0.219      0.219      0.001173  
   1    37   1     0     7     7  0.221      0.221      0.001760  
   1    38   1U    0     7     7  0.221      0.221      0.001760  
   1    38   2     0     2     2  0.222      0.222      0.0004399 
   1    39   1     0     2     2  0.222      0.222      0.0004399 
   1    40   1     0     2     2  0.223      0.223      0.0006599 
   1    41   1     0     4     4  0.224      0.224      0.0009899 
   1    42   1     0     6     6  0.225      0.225      0.001485  
   1    43   1     0     6     6  0.227      0.227      0.001485  
   1    44   1     0     7     7  0.228      0.228      0.001485  
   1    45   1     0     8     8  0.230      0.230      0.001485  
   1    46   1     0    10    10  0.231      0.231      0.001485  
   1    47   1U    0     6     6  0.231      0.231      0.001485  
   1    47   2     0     3     3  0.232      0.232      0.0003712 
   1    48   1     0     2     2  0.232      0.232      0.0003712 
   1    49   1     0     3     3  0.232      0.232      0.0005568 
   1    50   1     0     4     4  0.233      0.233      0.0008352 
   1    51   1     0     7     7  0.235      0.235      0.001253  
   1    52   1     0     7     7  0.236      0.236      0.001253  
   1    53   1     0     4     4  0.237      0.237      0.001253  
   1    54   1     0     6     6  0.238      0.238      0.001253  
   1    55   1     0     5     5  0.240      0.240      0.001253  
   1    56   1     0     4     4  0.241      0.241      0.001253  
   1    57   1     0     4     4  0.242      0.242      0.001253  
   1    58   1     0     9     9  0.244      0.244      0.001879  
   1    59   1U    0     9     9  0.244      0.244      0.001879  
   1    59   2     0     4     4  0.245      0.245      0.0009396 
   1    60   1     0     4     4  0.246      0.246      0.0009396 
   1    61   1     0     6     6  0.247      0.247      0.001409  
   1    62   1     0     4     4  0.249      0.249      0.001409  
   1    63   1     0     6     6  0.250      0.250      0.001409  
   1    64   1     0     8     8  0.251      0.251      0.001409  
   1    65   1     0     5     5  0.253      0.253      0.001409  
   1    66   1     0     4     4  0.254      0.254      0.001409  
   1    67   1     0     5     5  0.256      0.256      0.001409  
   1    68   1     0     5     5  0.257      0.257      0.001409  
   1    69   1     0     5     5  0.259      0.259      0.001409  
   1    70   1     0     5     5  0.260      0.260      0.001409  
   1    71   1     0     4     4  0.261      0.261      0.001409  
   1    72   1     0     4     4  0.263      0.263      0.001409  
   1    73   1U    0     5     5  0.263      0.263      0.002114  
   1    73   2     0     2     2  0.263      0.263      0.0005285 
   1    74   1     0     3     3  0.264      0.264      0.0007928 
   1    75   1     0     5     5  0.265      0.265      0.001189  
   1    76   1     0     5     5  0.266      0.266      0.001189  
   1    77   1     0     4     4  0.268      0.268      0.001189  
   1    78   1     0     4     4  0.269      0.269      0.001189  
   1    79   1     0     6     6  0.271      0.271      0.001784  
   1    80   1U    0     9     9  0.271      0.271      0.001784  
   1    80   2     0     4     4  0.272      0.272      0.0008919 
   1    81   1     0     3     3  0.272      0.272      0.0008919 
   1    82   1     0     5     5  0.274      0.274      0.001338  
   1    83   1     0     5     5  0.275      0.275      0.001338  
   1    84   1     0     4     4  0.276      0.276      0.001338  
   1    85   1     0     4     4  0.278      0.278      0.001338  
   1    86   1U    0     9     9  0.278      0.278      0.002007  
   1    86   2     0     4     4  0.279      0.279      0.001003  
   1    87   1     0     6     6  0.280      0.280      0.001505  
   1    88   1     0     5     5  0.282      0.282      0.001505  
   1    89   1     0     4     4  0.283      0.283      0.001505  
   1    90   1     0     6     6  0.285      0.285      0.001505  
   1    91   1     0     6     6  0.286      0.286      0.001505  
   1    92   1     0     5     5  0.288      0.288      0.001505  
   1    93   1     0     7     7  0.289      0.289      0.001505  
   1    94   1     0     9     9  0.291      0.291      0.001505  
   1    95   1     5     1     6  0.292      0.292      0.001505  
   1    96   1     3     4     7  0.294      0.294      0.001505  
   1    97   1U    2     1     3  0.294      0.294      0.002258  
   1    97   2     1     5     6  0.294      0.294      0.0005644 
   1    98   1     0     3     3  0.295      0.295      0.0005644 
   1    99   1     0     3     3  0.295      0.295      0.0005644 
   1   100   1     0     4     4  0.296      0.296      0.0008466 
   1   101   1     4     2     6  0.298      0.298      0.001270  
   1   102   1U    4     3     7  0.298      0.298      0.001905  
   1   102   2     1     4     5  0.298      0.298      0.0004762 
   1   103   1U    2     2     4  0.298      0.298      0.0007143 
   1   103   2     1     3     4  0.298      0.298      0.0001786 
   1   104   1     0     4     4  0.299      0.299      0.0002679 
   1   105   1     0     4     4  0.299      0.299      0.0004018 
   1   106   1     0     4     4  0.300      0.300      0.0006027 
   1   107   1     4     2     6  0.300      0.300      0.0009041 
   1   108   1U    4     1     5  0.300      0.300      0.001356  
   1   108   2     1     3     4  0.301      0.301      0.0003390 
   1   109   1     3     3     6  0.301      0.301      0.0005085 
   1   110   1     0     6     6  0.302      0.302      0.0007628 
   1   111   1     3     2     5  0.303      0.303      0.0007628 
   1   112   1     1     4     5  0.304      0.304      0.0007628 
   1   113   1     0     6     6  0.305      0.305      0.001144  
   1   114   1     2     4     6  0.306      0.306      0.001144  
   1   115   1     2     4     6  0.307      0.307      0.001144  
   1   116   1U    6     1     7  0.307      0.307      0.001716  
   1   116   2     2     2     4  0.307      0.307      0.0004291 
   1   117   1     0     4     4  0.308      0.308      0.0006436 
   1   118   1     0     4     4  0.309      0.309      0.0009654 
   1   119   1     0     6     6  0.310      0.310      0.001448  
   1   120   1     0     6     6  0.312      0.312      0.001448  
   1   121   1U    0     6     6  0.312      0.312      0.001448  
   1   121   2     0     3     3  0.312      0.312      0.0003620 
   1   122   1     0     3     3  0.313      0.313      0.0003620 
   1   123   1     0     3     3  0.313      0.313      0.0005431 
   1   124   1     0     4     4  0.314      0.314      0.0008146 
   1   125   1     0     6     6  0.315      0.315      0.001222  
   1   126   1     0     6     6  0.316      0.316      0.001222  
   1   127   1     0     7     7  0.318      0.318      0.001222  
   1   128   1     0     6     6  0.319      0.319      0.001222  
   1   129   1     0     6     6  0.320      0.320      0.001222  
   1   130   1     0     7     7  0.321      0.321      0.001222  
   1   131   1     0     5     5  0.323      0.323      0.001222  
   1   132   1     0     7     7  0.324      0.324      0.001222  
   1   133   1     0     6     6  0.325      0.325      0.001222  
   1   134   1     0     4     4  0.326      0.326      0.001222  
   1   135   1     0     5     5  0.327      0.327      0.001222  
   1   136   1     0     4     4  0.329      0.329      0.001222  
   1   137   1     0     7     7  0.330      0.330      0.001222  
   1   138   1     0     6     6  0.331      0.331      0.001222  
   1   139   1     0     4     4  0.332      0.332      0.001222  
   1   140   1     0     6     6  0.334      0.334      0.001222  
   1   141   1     0     5     5  0.335      0.335      0.001222  
   1   142   1     0     5     5  0.336      0.336      0.001222  
   1   143   1     0     5     5  0.337      0.337      0.001222  
   1   144   1     0     6     6  0.338      0.338      0.001222  
   1   145   1     0     7     7  0.340      0.340      0.001222  
   1   146   1     0     5     5  0.341      0.341      0.001222  
   1   147   1     0     4     4  0.342      0.342      0.001222  
   1   148   1     0     6     6  0.343      0.343      0.001222  
   1   149   1     0     7     7  0.345      0.345      0.001222  
   1   150   1     0     5     5  0.346      0.346      0.001222  
   1   151   1     0     6     6  0.347      0.347      0.001222  
   1   152   1     0     4     4  0.348      0.348      0.001222  
   1   153   1     0     4     4  0.349      0.349      0.001222  
   1   154   1     0     8     8  0.351      0.351      0.001833  
   1   155   1     0     7     7  0.353      0.353      0.001833  
   1   156   1U    0     5     5  0.353      0.353      0.001833  
   1   156   2     0     3     3  0.354      0.354      0.0004582 
   1   157   1     0     3     3  0.354      0.354      0.0004582 
   1   158   1     0     3     3  0.355      0.355      0.0006873 
   1   159   1     0     4     4  0.356      0.356      0.001031  
   1   160   1     0     5     5  0.357      0.357      0.001546  
   1   161   1     0     6     6  0.359      0.359      0.001546  
   1   162   1U    0     8     8  0.359      0.359      0.001546  
   1   162   2     0     3     3  0.359      0.359      0.0003866 
   1   163   1     0     2     2  0.360      0.360      0.0003866 
   1   164   1     0     3     3  0.360      0.360      0.0005799 
   1   165   1     0     3     3  0.361      0.361      0.0008699 
   1   166   1     0     4     4  0.362      0.362      0.001305  
   1   167   1     0     6     6  0.364      0.364      0.001957  
   1   168   1     0     7     7  0.366      0.366      0.001957  
   1   169   1     0     8     8  0.368      0.368      0.001957  
   1   170   1     0     4     4  0.370      0.370      0.001957  
   1   171   1     0     7     7  0.372      0.372      0.001957  
   1   172   1     0     6     6  0.374      0.374      0.001957  
   1   173   1U    0     4     4  0.374      0.374      0.001957  
   1   173   2     0     3     3  0.375      0.375      0.0004893 
   1   174   1     0     2     2  0.375      0.375      0.0004893 
   1   175   1     0     3     3  0.376      0.376      0.0007340 
   1   176   1     0     4     4  0.377      0.377      0.001101  
   1   177   1     0     5     5  0.379      0.379      0.001651  
   1   178   1     0     5     5  0.380      0.380      0.001651  
   1   179   1U    0     9     9  0.380      0.380      0.001651  
   1   179   2     0     4     4  0.381      0.381      0.0008257 
   1   180   1     0     4     4  0.382      0.382      0.0008257 
   1   181   1     0     5     5  0.383      0.383      0.001239  
   1   182   1     0     4     4  0.384      0.384      0.001239  
   1   183   1     0     4     4  0.386      0.386      0.001239  
   1   184   1     0     7     7  0.387      0.387      0.001858  
   1   185   1     0     6     6  0.389      0.389      0.001858  
   1   186   1     0     6     6  0.391      0.391      0.001858  
   1   187   1     0     8     8  0.393      0.393      0.001858  
   1   188   1     0     6     6  0.395      0.395      0.001858  
   1   189   1U    0     9     9  0.395      0.395      0.001858  
   1   189   2     0     4     4  0.396      0.396      0.0009289 
   1   190   1     0     4     4  0.397      0.397      0.0009289 
   1   191   1     0     5     5  0.398      0.398      0.001393  
   1   192   1     0     5     5  0.400      0.400      0.001393  
   1   193   1     0     4     4  0.401      0.401      0.001393  
   1   194   1     0     4     4  0.402      0.402      0.001393  
   1   195   1U    0     4     4  0.402      0.402      0.002090  
   1   195   2     0     3     3  0.403      0.403      0.0005225 
   1   196   1     0     3     3  0.404      0.404      0.0007838 
   1   197   1     0     4     4  0.405      0.405      0.001176  
   1   198   1     0     5     5  0.407      0.407      0.001763  
   1   199   1     0     5     5  0.408      0.408      0.001763  
   1   200   1     0     5     5  0.410      0.410      0.001763  
   1   201   1     0     6     6  0.412      0.412      0.001763  
   1   202   1U    4     1     5  0.412      0.412      0.001763  
   1   202   2     2     4     6  0.412      0.412      0.0004409 
   1   203   1     0     4     4  0.413      0.413      0.0004409 
   1   204   1     3     1     4  0.413      0.413      0.0006613 
   1   205   1     1     5     6  0.414      0.414      0.0009920 
   1   206   1     3     4     7  0.415      0.415      0.0009920 
   1   207   1     2     5     7  0.416      0.416      0.0009920 
   1   208   1     6     1     7  0.417      0.417      0.0009920 
   1   209   1     1     4     5  0.418      0.418      0.0009920 
   1   210   1     0     6     6  0.420      0.420      0.001488  
   1   211   1     2     3     5  0.421      0.421      0.001488  
   1   212   1     2     3     5  0.423      0.423      0.001488  
   1   213   1U    0     6     6  0.423      0.423      0.002232  
   1   213   2     0     3     3  0.423      0.423      0.0005580 
   1   214   1     0     4     4  0.424      0.424      0.0008370 
   1   215   1     0     7     7  0.425      0.425      0.001255  
   1   216   1     0     7     7  0.427      0.427      0.001255  
                          
 THE ANALYSIS HAS NOT BEEN COMPLETED
