 Abaqus/Standard 2022                  DATE 19-Dez-2023 TIME 14:33:34
 SUMMARY OF JOB INFORMATION:
 STEP  INC ATT SEVERE EQUIL TOTAL  TOTAL      STEP       INC OF       DOF    IF
               DISCON ITERS ITERS  TIME/    TIME/LPF    TIME/LPF    MONITOR RIKS
               ITERS               FREQ
   1     1   1U    0     4     4  0.00       0.00       1.000     
   1     1   2U    0     5     5  0.00       0.00       0.2500    
   1     1   3     0     2     2  8.51e-08   8.51e-08   8.506e-08 
   1     2   1     0     1     1  1.70e-07   1.70e-07   8.506e-08 
   1     3   1     0     1     1  2.55e-07   2.55e-07   8.506e-08 
   1     4   1     0     1     1  3.61e-07   3.61e-07   1.063e-07 
   1     5   1     0     1     1  4.94e-07   4.94e-07   1.329e-07 
   1     6   1     0     1     1  6.61e-07   6.61e-07   1.661e-07 
   1     7   1     0     1     1  8.68e-07   8.68e-07   2.077e-07 
   1     8   1     0     1     1  1.13e-06   1.13e-06   2.596e-07 
   1     9   1     0     1     1  1.45e-06   1.45e-06   3.245e-07 
   1    10   1     0     1     1  1.86e-06   1.86e-06   4.056e-07 
   1    11   1     0     1     1  2.36e-06   2.36e-06   5.070e-07 
   1    12   1     0     1     1  3.00e-06   3.00e-06   6.337e-07 
   1    13   1     0     1     1  3.79e-06   3.79e-06   7.922e-07 
   1    14   1     0     1     1  4.78e-06   4.78e-06   9.902e-07 
   1    15   1     0     1     1  6.02e-06   6.02e-06   1.238e-06 
   1    16   1     0     1     1  7.57e-06   7.57e-06   1.547e-06 
   1    17   1     0     1     1  9.50e-06   9.50e-06   1.934e-06 
   1    18   1     0     1     1  1.19e-05   1.19e-05   2.417e-06 
   1    19   1     0     1     1  1.49e-05   1.49e-05   3.022e-06 
   1    20   1     0     1     1  1.87e-05   1.87e-05   3.777e-06 
   1    21   1     0     2     2  2.34e-05   2.34e-05   4.722e-06 
   1    22   1     0     2     2  2.93e-05   2.93e-05   5.902e-06 
   1    23   1     0     2     2  3.61e-05   3.61e-05   6.765e-06 
   1    24   1     0     2     2  4.29e-05   4.29e-05   6.765e-06 
   1    25   1     0     2     2  4.96e-05   4.96e-05   6.765e-06 
   1    26   1     0     2     2  5.81e-05   5.81e-05   8.456e-06 
   1    27   1     0     2     2  6.87e-05   6.87e-05   1.057e-05 
   1    28   1     0     2     2  8.10e-05   8.10e-05   1.232e-05 
   1    29   1     0     2     2  9.33e-05   9.33e-05   1.232e-05 
   1    30   1     0     2     2  0.000106   0.000106   1.232e-05 
   1    31   1     0     2     2  0.000121   0.000121   1.540e-05 
   1    32   1     0     2     2  0.000139   0.000139   1.838e-05 
   1    33   1     0     2     2  0.000158   0.000158   1.838e-05 
   1    34   1     0     2     2  0.000176   0.000176   1.838e-05 
   1    35   1     0     2     2  0.000196   0.000196   2.033e-05 
   1    36   1     0     2     2  0.000217   0.000217   2.033e-05 
   1    37   1     0     2     2  0.000237   0.000237   2.033e-05 
   1    38   1     0     2     2  0.000260   0.000260   2.305e-05 
   1    39   1     0     2     2  0.000283   0.000283   2.305e-05 
   1    40   1     0     2     2  0.000309   0.000309   2.601e-05 
   1    41   1     0     2     2  0.000335   0.000335   2.601e-05 
   1    42   1     0     2     2  0.000364   0.000364   2.919e-05 
   1    43   1     0     2     2  0.000394   0.000394   2.919e-05 
   1    44   1     0     2     2  0.000427   0.000427   3.379e-05 
   1    45   1     0     2     2  0.000461   0.000461   3.379e-05 
   1    46   1     0     2     2  0.000500   0.000500   3.892e-05 
   1    47   1     0     2     2  0.000539   0.000539   3.892e-05 
   1    48   1     0     2     2  0.000585   0.000585   4.590e-05 
   1    49   1     0     2     2  0.000631   0.000631   4.590e-05 
   1    50   1     0     2     2  0.000686   0.000686   5.480e-05 
   1    51   1     0     2     2  0.000740   0.000740   5.480e-05 
   1    52   1     0     2     2  0.000806   0.000806   6.600e-05 
   1    53   1     0     2     2  0.000872   0.000872   6.600e-05 
   1    54   1     0     2     2  0.000952   0.000952   7.959e-05 
   1    55   1     0     2     2  0.00103    0.00103    7.959e-05 
   1    56   1     0     2     2  0.00113    0.00113    9.406e-05 
   1    57   1     0     2     2  0.00122    0.00122    9.406e-05 
   1    58   1     0     2     2  0.00133    0.00133    0.0001147 
   1    59   1     0     2     2  0.00145    0.00145    0.0001147 
   1    60   1     0     2     2  0.00159    0.00159    0.0001426 
   1    61   1     0     2     2  0.00173    0.00173    0.0001426 
   1    62   1     0     2     2  0.00191    0.00191    0.0001715 
   1    63   1     0     2     2  0.00208    0.00208    0.0001715 
   1    64   1     0     2     2  0.00228    0.00228    0.0002057 
   1    65   1     0     2     2  0.00249    0.00249    0.0002057 
   1    66   1     0     2     2  0.00275    0.00275    0.0002571 
   1    67   1     0     2     2  0.00300    0.00300    0.0002571 
   1    68   1     0     2     2  0.00332    0.00332    0.0003214 
   1    69   1     0     2     2  0.00365    0.00365    0.0003214 
   1    70   1     0     2     2  0.00405    0.00405    0.0004018 
   1    71   1     0     2     2  0.00445    0.00445    0.0004018 
   1    72   1     0     2     2  0.00495    0.00495    0.0005022 
   1    73   1     0     2     2  0.00545    0.00545    0.0005022 
   1    74   1     0     2     2  0.00596    0.00596    0.0005022 
   1    75   1     0     2     2  0.00646    0.00646    0.0005022 
   1    76   1     0     2     2  0.00696    0.00696    0.0005022 
   1    77   1     0     2     2  0.00752    0.00752    0.0005555 
   1    78   1     0     2     2  0.00807    0.00807    0.0005555 
   1    79   1     0     2     2  0.00863    0.00863    0.0005555 
   1    80   1     0     2     2  0.00918    0.00918    0.0005555 
   1    81   1     0     2     2  0.00981    0.00981    0.0006248 
   1    82   1     0     2     2  0.0104     0.0104     0.0006248 
   1    83   1     0     2     2  0.0111     0.0111     0.0006248 
   1    84   1     0     2     2  0.0117     0.0117     0.0006248 
   1    85   1     0     2     2  0.0124     0.0124     0.0007523 
   1    86   1     0     2     2  0.0132     0.0132     0.0007523 
   1    87   1     0     2     2  0.0139     0.0139     0.0007523 
   1    88   1     0     2     2  0.0147     0.0147     0.0007523 
   1    89   1     0     2     2  0.0156     0.0156     0.0009368 
   1    90   1     0     2     2  0.0166     0.0166     0.0009368 
   1    91   1     0     2     2  0.0175     0.0175     0.0009368 
   1    92   1     0     2     2  0.0184     0.0184     0.0009368 
   1    93   1     0     2     2  0.0196     0.0196     0.001171  
   1    94   1     0     2     2  0.0208     0.0208     0.001171  
   1    95   1     0     2     2  0.0221     0.0221     0.001343  
   1    96   1     0     2     2  0.0235     0.0235     0.001343  
   1    97   1     0     2     2  0.0250     0.0250     0.001537  
   1    98   1     0     2     2  0.0265     0.0265     0.001537  
   1    99   1     0     2     2  0.0284     0.0284     0.001830  
   1   100   1     0     2     2  0.0302     0.0302     0.001830  
   1   101   1     0     2     2  0.0324     0.0324     0.002224  
   1   102   1     0     2     2  0.0346     0.0346     0.002224  
   1   103   1     0     2     2  0.0374     0.0374     0.002709  
   1   104   1     0     2     2  0.0401     0.0401     0.002709  
   1   105   1     0     2     2  0.0435     0.0435     0.003385  
   1   106   1     0     2     2  0.0468     0.0468     0.003385  
   1   107   1     0     3     3  0.0511     0.0511     0.004232  
   1   108   1     0     3     3  0.0553     0.0553     0.004232  
   1   109   1     0     3     3  0.0606     0.0606     0.005289  
   1   110   1     0     3     3  0.0659     0.0659     0.005289  
   1   111   1     0     2     2  0.0725     0.0725     0.006612  
   1   112   1     0     4     4  0.0808     0.0808     0.008265  
   1   113   1     0     4     4  0.0910     0.0910     0.01024   
   1   114   1     0     3     3  0.101      0.101      0.01024   
   1   115   1     0     4     4  0.114      0.114      0.01280   
   1   116   1     0     6     6  0.130      0.130      0.01600   
   1   117   1     0     4     4  0.146      0.146      0.01600   
   1   118   1     0     4     4  0.162      0.162      0.01600   
   1   119   1U    0     4     4  0.162      0.162      0.02000   
   1   119   2     0     2     2  0.167      0.167      0.005001  
   1   120   1     0     2     2  0.173      0.173      0.006251  
   1   121   1     0     4     4  0.181      0.181      0.007814  
   1   122   1     0     6     6  0.191      0.191      0.009768  
   1   123   1U    0     4     4  0.191      0.191      0.009768  
   1   123   2     0     3     3  0.193      0.193      0.002442  
   1   124   1     0     3     3  0.196      0.196      0.002442  
   1   125   1     0     4     4  0.199      0.199      0.003052  
   1   126   1     0     6     6  0.203      0.203      0.003816  
   1   127   1     0     5     5  0.206      0.206      0.003816  
   1   128   1     0     4     4  0.210      0.210      0.003816  
   1   129   1     0     4     4  0.214      0.214      0.003816  
   1   130   1     0     4     4  0.219      0.219      0.004769  
   1   131   1     0     8     8  0.225      0.225      0.005962  
   1   132   1     0     6     6  0.231      0.231      0.005962  
   1   133   1U    0     6     6  0.231      0.231      0.005962  
   1   133   2     0     2     2  0.232      0.232      0.001490  
   1   134   1     0     2     2  0.234      0.234      0.001490  
   1   135   1     0     3     3  0.236      0.236      0.001863  
   1   136   1     0     3     3  0.238      0.238      0.002329  
   1   137   1     0     4     4  0.241      0.241      0.002911  
   1   138   1     0     5     5  0.245      0.245      0.003639  
   1   139   1     0     4     4  0.248      0.248      0.003639  
   1   140   1     0     4     4  0.252      0.252      0.003639  
   1   141   1     0     5     5  0.256      0.256      0.004549  
   1   142   1     0     4     4  0.261      0.261      0.004549  
   1   143   1     0     4     4  0.265      0.265      0.004549  
   1   144   1U    0     7     7  0.265      0.265      0.005686  
   1   144   2     0     2     2  0.267      0.267      0.001421  
   1   145   1     0     3     3  0.269      0.269      0.001777  
   1   146   1     0     3     3  0.271      0.271      0.002221  
   1   147   1     0     5     5  0.274      0.274      0.002776  
   1   148   1     0     3     3  0.276      0.276      0.002776  
   1   149   1     0     3     3  0.279      0.279      0.002776  
   1   150   1     0     4     4  0.283      0.283      0.003470  
   1   151   1     0     5     5  0.287      0.287      0.004338  
   1   152   1     0     4     4  0.291      0.291      0.004338  
   1   153   1     0     7     7  0.296      0.296      0.004338  
   1   154   1     0     5     5  0.300      0.300      0.004338  
   1   155   1     0     4     4  0.304      0.304      0.004338  
   1   156   1U    0     4     4  0.304      0.304      0.004338  
   1   156   2     0     2     2  0.305      0.305      0.001084  
   1   157   1     0     3     3  0.307      0.307      0.001356  
   1   158   1     0     3     3  0.308      0.308      0.001694  
   1   159   1     0     4     4  0.311      0.311      0.002118  
   1   160   1     0     3     3  0.313      0.313      0.002648  
   1   161   1     0     4     4  0.317      0.317      0.003309  
   1   162   1     0     7     7  0.321      0.321      0.004137  
   1   163   1     0     5     5  0.325      0.325      0.004137  
   1   164   1     0     6     6  0.329      0.329      0.004137  
   1   165   1     0     6     6  0.333      0.333      0.004137  
   1   166   1     0     5     5  0.337      0.337      0.004137  
   1   167   1     0     4     4  0.341      0.341      0.004137  
   1   168   1     0     6     6  0.345      0.345      0.004137  
   1   169   1     0     5     5  0.350      0.350      0.004137  
   1   170   1U    0     6     6  0.350      0.350      0.004137  
   1   170   2     0     2     2  0.351      0.351      0.001034  
   1   171   1     0     3     3  0.352      0.352      0.001034  
   1   172   1     0     3     3  0.353      0.353      0.001293  
   1   173   1     0     3     3  0.355      0.355      0.001616  
   1   174   1     0     4     4  0.357      0.357      0.002020  
   1   175   1     0     4     4  0.359      0.359      0.002525  
   1   176   1     0     4     4  0.362      0.362      0.002525  
   1   177   1     0     4     4  0.364      0.364      0.002525  
   1   178   1     0     4     4  0.367      0.367      0.002525  
   1   179   1     0     4     4  0.370      0.370      0.003056  
   1   180   1     0     4     4  0.373      0.373      0.003056  
   1   181   1     0     4     4  0.376      0.376      0.003056  
   1   182   1     0     4     4  0.379      0.379      0.003056  
   1   183   1     0     4     4  0.382      0.382      0.003056  
   1   184   1     0     4     4  0.385      0.385      0.003056  
   1   185   1     0     4     4  0.388      0.388      0.003056  
   1   186   1     0     6     6  0.392      0.392      0.003820  
   1   187   1     0     4     4  0.396      0.396      0.003820  
   1   188   1     0    10    10  0.400      0.400      0.003820  
   1   189   1     0     5     5  0.403      0.403      0.003820  
   1   190   1     0     6     6  0.407      0.407      0.003820  
   1   191   1     0     6     6  0.411      0.411      0.003820  
   1   192   1     0     7     7  0.415      0.415      0.003820  
   1   193   1     0     4     4  0.419      0.419      0.003820  
   1   194   1     0     3     3  0.423      0.423      0.003820  
   1   195   1     0     6     6  0.427      0.427      0.004775  
   1   196   1     0     4     4  0.432      0.432      0.004775  
   1   197   1     0     6     6  0.437      0.437      0.004775  
   1   198   1     0     5     5  0.442      0.442      0.004775  
   1   199   1U    0     8     8  0.442      0.442      0.004775  
   1   199   2     0     2     2  0.443      0.443      0.001194  
   1   200   1     0     2     2  0.444      0.444      0.001194  
   1   201   1     0     3     3  0.445      0.445      0.001492  
   1   202   1     0     3     3  0.447      0.447      0.001865  
   1   203   1     0     4     4  0.450      0.450      0.002331  
   1   204   1     0     4     4  0.453      0.453      0.002914  
   1   205   1     0     5     5  0.456      0.456      0.003643  
   1   206   1     0     4     4  0.460      0.460      0.003643  
   1   207   1     0     3     3  0.464      0.464      0.003643  
   1   208   1     0     4     4  0.468      0.468      0.004471  
   1   209   1     0     3     3  0.472      0.472      0.004471  
   1   210   1     0     4     4  0.478      0.478      0.005221  
   1   211   1     0     4     4  0.483      0.483      0.005221  
   1   212   1     0     6     6  0.489      0.489      0.006283  
   1   213   1     0     6     6  0.495      0.495      0.006283  
   1   214   1     0     4     4  0.502      0.502      0.006283  
   1   215   1     0     4     4  0.508      0.508      0.006283  
   1   216   1     0     9     9  0.516      0.516      0.007853  
   1   217   1     0     4     4  0.524      0.524      0.007853  
   1   218   1     0     4     4  0.532      0.532      0.007853  
   1   219   1U    0     5     5  0.532      0.532      0.009817  
   1   219   2     0     2     2  0.534      0.534      0.002454  
   1   220   1     0     2     2  0.537      0.537      0.003068  
   1   221   1     0     4     4  0.541      0.541      0.003835  
   1   222   1     0     3     3  0.546      0.546      0.004793  
   1   223   1     0     4     4  0.552      0.552      0.005992  
   1   224   1     0     4     4  0.559      0.559      0.007490  
   1   225   1     0     4     4  0.569      0.569      0.009362  
   1   226   1     0     4     4  0.580      0.580      0.01170   
   1   227   1     0     7     7  0.595      0.595      0.01463   
   1   228   1     0     6     6  0.610      0.610      0.01463   
   1   229   1     0     6     6  0.624      0.624      0.01463   
   1   230   1     0     6     6  0.639      0.639      0.01463   
   1   231   1     0     4     4  0.653      0.653      0.01463   
   1   232   1     0     4     4  0.668      0.668      0.01463   
   1   233   1     0     6     6  0.686      0.686      0.01829   
   1   234   1     0     6     6  0.705      0.705      0.01829   
   1   235   1     0     6     6  0.723      0.723      0.01829   
   1   236   1     0     6     6  0.741      0.741      0.01829   
   1   237   1     0     6     6  0.759      0.759      0.01829   
   1   238   1     0     6     6  0.778      0.778      0.01829   
   1   239   1     0     4     4  0.796      0.796      0.01829   
   1   240   1     0     6     6  0.814      0.814      0.01829   
   1   241   1U    0     4     4  0.814      0.814      0.01829   
   1   241   2     0     2     2  0.819      0.819      0.004571  
   1   242   1     0     2     2  0.823      0.823      0.004571  
   1   243   1     0     3     3  0.829      0.829      0.005714  
   1   244   1     0     3     3  0.836      0.836      0.007143  
   1   245   1U    0     7     7  0.836      0.836      0.008928  
   1   245   2     0     2     2  0.839      0.839      0.002232  
   1   246   1     0     2     2  0.841      0.841      0.002790  
   1   247   1     0     3     3  0.845      0.845      0.003488  
   1   248   1     0     4     4  0.849      0.849      0.004360  
   1   249   1U    0     4     4  0.849      0.849      0.005449  
   1   249   2     0     3     3  0.851      0.851      0.001362  
   1   250   1     0     3     3  0.852      0.852      0.001703  
   1   251   1     0     4     4  0.854      0.854      0.002129  
   1   252   1     0     4     4  0.857      0.857      0.002661  
   1   253   1U    0     7     7  0.857      0.857      0.003326  
   1   253   2     0     3     3  0.858      0.858      0.0008315 
   1   254   1     0     3     3  0.859      0.859      0.001039  
   1   255   1     0     6     6  0.860      0.860      0.001299  
   1   256   1U    0     5     5  0.860      0.860      0.001299  
   1   256   2     0     4     4  0.861      0.861      0.0003248 
   1   257   1     0     4     4  0.861      0.861      0.0003248 
   1   258   1     0     4     4  0.861      0.861      0.0004060 
   1   259   1     0     4     4  0.862      0.862      0.0005075 
   1   260   1     0     4     4  0.862      0.862      0.0005075 
   1   261   1     0     4     4  0.863      0.863      0.0005075 
   1   262   1     0     4     4  0.863      0.863      0.0005075 
   1   263   1     0     4     4  0.864      0.864      0.0005075 
   1   264   1     0     4     4  0.864      0.864      0.0005075 
   1   265   1     0     4     4  0.865      0.865      0.0005075 
   1   266   1     0     4     4  0.865      0.865      0.0005075 
   1   267   1     0     4     4  0.866      0.866      0.0005075 
   1   268   1     0     4     4  0.866      0.866      0.0005075 
   1   269   1     0     4     4  0.867      0.867      0.0005075 
   1   270   1U    0     4     4  0.867      0.867      0.0005075 
   1   270   2     0     4     4  0.867      0.867      0.0004307 
   1   271   1     0     4     4  0.868      0.868      0.0004307 
   1   272   1     0     3     3  0.868      0.868      0.0004307 
   1   273   1     0     4     4  0.869      0.869      0.0004307 
   1   274   1     0     4     4  0.869      0.869      0.0004307 
   1   275   1     0     3     3  0.869      0.869      0.0004307 
   1   276   1     0     4     4  0.870      0.870      0.0004307 
   1   277   1     0     4     4  0.870      0.870      0.0004307 
   1   278   1     0     4     4  0.871      0.871      0.0004307 
   1   279   1     0     4     4  0.871      0.871      0.0004307 
   1   280   1     0     4     4  0.872      0.872      0.0004307 
   1   281   1     0     4     4  0.872      0.872      0.0004307 
   1   282   1     0     4     4  0.872      0.872      0.0004307 
   1   283   1     0     4     4  0.873      0.873      0.0004307 
   1   284   1     0     4     4  0.873      0.873      0.0004307 
   1   285   1     0     3     3  0.874      0.874      0.0004307 
   1   286   1     0     4     4  0.874      0.874      0.0004307 
   1   287   1     0     4     4  0.875      0.875      0.0004307 
   1   288   1     0     4     4  0.875      0.875      0.0004307 
   1   289   1     0     4     4  0.875      0.875      0.0004307 
   1   290   1     0     4     4  0.876      0.876      0.0004307 
   1   291   1     0     4     4  0.876      0.876      0.0004307 
   1   292   1     0     4     4  0.877      0.877      0.0004307 
   1   293   1     0     4     4  0.877      0.877      0.0005108 
   1   294   1     0     4     4  0.878      0.878      0.0005108 
   1   295   1     0     4     4  0.878      0.878      0.0005108 
   1   296   1     0     4     4  0.879      0.879      0.0005108 
   1   297   1     0     4     4  0.879      0.879      0.0005108 
   1   298   1     0     4     4  0.880      0.880      0.0005108 
   1   299   1     0     4     4  0.880      0.880      0.0005108 
   1   300   1     0     5     5  0.881      0.881      0.0005108 
   1   301   1     0     4     4  0.881      0.881      0.0005108 
   1   302   1     0     5     5  0.882      0.882      0.0005108 
   1   303   1     0     4     4  0.882      0.882      0.0005108 
   1   304   1     0     5     5  0.883      0.883      0.0005108 
   1   305   1     0     4     4  0.883      0.883      0.0005108 
   1   306   1U    0     5     5  0.883      0.883      0.0005108 
   1   306   2     0     4     4  0.884      0.884      0.0004269 
   1   307   1     0     4     4  0.884      0.884      0.0004269 
   1   308   1U    0     5     5  0.884      0.884      0.0004269 
   1   308   2     0     4     4  0.885      0.885      0.0003370 
   1   309   1     0     4     4  0.885      0.885      0.0003370 
   1   310   1     0     4     4  0.885      0.885      0.0003370 
   1   311   1     0     3     3  0.886      0.886      0.0003705 
   1   312   1     0     4     4  0.886      0.886      0.0003705 
   1   313   1     0     4     4  0.886      0.886      0.0003705 
   1   314   1     0     3     3  0.887      0.887      0.0003705 
   1   315   1     0     3     3  0.887      0.887      0.0003705 
   1   316   1     0     3     3  0.888      0.888      0.0003705 
   1   317   1     0     4     4  0.888      0.888      0.0003705 
   1   318   1     0     4     4  0.888      0.888      0.0003705 
   1   319   1     0     4     4  0.889      0.889      0.0003705 
   1   320   1     0     4     4  0.889      0.889      0.0003705 
   1   321   1     0     3     3  0.889      0.889      0.0003705 
   1   322   1     0     4     4  0.890      0.890      0.0004352 
   1   323   1     0     4     4  0.890      0.890      0.0004352 
   1   324   1     0     4     4  0.891      0.891      0.0004352 
   1   325   1     0     4     4  0.891      0.891      0.0004352 
   1   326   1     0     3     3  0.892      0.892      0.0004352 
   1   327   1     0     4     4  0.892      0.892      0.0005440 
   1   328   1     0     4     4  0.893      0.893      0.0005440 
   1   329   1     0     4     4  0.893      0.893      0.0005440 
   1   330   1     0     4     4  0.894      0.894      0.0005440 
   1   331   1     0     4     4  0.894      0.894      0.0006445 
   1   332   1     0     5     5  0.895      0.895      0.0006445 
   1   333   1     0     4     4  0.896      0.896      0.0006445 
   1   334   1     0     5     5  0.896      0.896      0.0006445 
   1   335   1     0     6     6  0.897      0.897      0.0006445 
   1   336   1U    0     6     6  0.897      0.897      0.0006445 
   1   336   2     0     2     2  0.897      0.897      0.0001611 
   1   337   1     0     3     3  0.897      0.897      0.0001611 
   1   338   1     0     3     3  0.897      0.897      0.0002014 
   1   339   1     0     3     3  0.898      0.898      0.0002517 
   1   340   1     0     4     4  0.898      0.898      0.0003147 
   1   341   1     0     4     4  0.898      0.898      0.0003147 
   1   342   1     0     3     3  0.899      0.899      0.0003147 
   1   343   1     0     4     4  0.899      0.899      0.0003147 
   1   344   1     0     3     3  0.899      0.899      0.0003147 
   1   345   1     0     3     3  0.900      0.900      0.0003147 
   1   346   1     0     3     3  0.900      0.900      0.0003147 
   1   347   1     0     4     4  0.900      0.900      0.0003147 
   1   348   1     0     3     3  0.901      0.901      0.0003796 
   1   349   1     0     3     3  0.901      0.901      0.0003796 
   1   350   1     0     4     4  0.901      0.901      0.0004342 
   1   351   1     0     4     4  0.902      0.902      0.0004342 
   1   352   1     0     4     4  0.902      0.902      0.0004866 
   1   353   1     0     4     4  0.903      0.903      0.0004866 
   1   354   1     0     4     4  0.903      0.903      0.0004866 
   1   355   1     0     5     5  0.904      0.904      0.0004866 
   1   356   1     0     4     4  0.904      0.904      0.0004866 
   1   357   1     0     4     4  0.905      0.905      0.0004866 
   1   358   1     0     4     4  0.905      0.905      0.0006082 
   1   359   1     0     4     4  0.906      0.906      0.0006082 
   1   360   1     0     4     4  0.907      0.907      0.0006082 
   1   361   1     0     4     4  0.907      0.907      0.0006082 
   1   362   1U    0     4     4  0.907      0.907      0.0006082 
   1   362   2     0     3     3  0.908      0.908      0.0004473 
   1   363   1     0     4     4  0.908      0.908      0.0004473 
   1   364   1     0     4     4  0.909      0.909      0.0004473 
   1   365   1U    0     4     4  0.909      0.909      0.0004473 
   1   365   2     0     3     3  0.909      0.909      0.0003525 
   1   366   1     0     3     3  0.909      0.909      0.0003525 
   1   367   1     0     3     3  0.910      0.910      0.0003525 
   1   368   1     0     4     4  0.910      0.910      0.0003525 
   1   369   1     0     3     3  0.910      0.910      0.0003525 
   1   370   1     0     4     4  0.911      0.911      0.0003525 
   1   371   1U    0     4     4  0.911      0.911      0.0003525 
   1   371   2     0     3     3  0.911      0.911      0.0002985 
   1   372   1     0     4     4  0.911      0.911      0.0002985 
   1   373   1     0     3     3  0.912      0.912      0.0002985 
   1   374   1     0     4     4  0.912      0.912      0.0002985 
   1   375   1     0     4     4  0.912      0.912      0.0002985 
   1   376   1     0     4     4  0.912      0.912      0.0002985 
   1   377   1     0     4     4  0.913      0.913      0.0002985 
   1   378   1     0     4     4  0.913      0.913      0.0002985 
   1   379   1     0     4     4  0.913      0.913      0.0002985 
   1   380   1     0     4     4  0.914      0.914      0.0003329 
   1   381   1     0     3     3  0.914      0.914      0.0003329 
   1   382   1     0     4     4  0.914      0.914      0.0003329 
   1   383   1     0     3     3  0.915      0.915      0.0003329 
   1   384   1     0     4     4  0.915      0.915      0.0003985 
   1   385   1     0     4     4  0.915      0.915      0.0003985 
   1   386   1     0     4     4  0.916      0.916      0.0003985 
   1   387   1     0     4     4  0.916      0.916      0.0003985 
   1   388   1     0     4     4  0.917      0.917      0.0003985 
   1   389   1     0     4     4  0.917      0.917      0.0004866 
   1   390   1     0     4     4  0.918      0.918      0.0004866 
   1   391   1     0     4     4  0.918      0.918      0.0004866 
   1   392   1     0     5     5  0.919      0.919      0.0004866 
   1   393   1     0     4     4  0.919      0.919      0.0004866 
   1   394   1     0     4     4  0.920      0.920      0.0004866 
   1   395   1     0     4     4  0.920      0.920      0.0004866 
   1   396   1     0     4     4  0.921      0.921      0.0004866 
   1   397   1U    0     4     4  0.921      0.921      0.0004866 
   1   397   2     0     3     3  0.921      0.921      0.0003973 
   1   398   1     0     3     3  0.921      0.921      0.0003973 
   1   399   1     0     3     3  0.922      0.922      0.0003973 
   1   400   1     0     4     4  0.922      0.922      0.0003973 
   1   401   1     0     3     3  0.923      0.923      0.0003973 
   1   402   1     0     4     4  0.923      0.923      0.0003973 
   1   403   1     0     4     4  0.923      0.923      0.0004544 
   1   404   1     0     3     3  0.924      0.924      0.0004544 
   1   405   1     0     4     4  0.924      0.924      0.0004544 
   1   406   1     0     4     4  0.925      0.925      0.0004544 
   1   407   1     0     4     4  0.925      0.925      0.0004544 
   1   408   1     0     3     3  0.926      0.926      0.0004544 
   1   409   1     0     3     3  0.926      0.926      0.0004544 
   1   410   1     0     4     4  0.927      0.927      0.0005204 
   1   411   1     0     4     4  0.927      0.927      0.0005204 
   1   412   1     0     4     4  0.928      0.928      0.0005204 
   1   413   1     0     4     4  0.928      0.928      0.0005204 
   1   414   1     0     4     4  0.929      0.929      0.0006505 
   1   415   1     0     4     4  0.930      0.930      0.0006505 
   1   416   1     0     4     4  0.930      0.930      0.0006505 
   1   417   1     0     4     4  0.931      0.931      0.0006505 
   1   418   1     0     5     5  0.932      0.932      0.0008132 
   1   419   1     0     4     4  0.932      0.932      0.0008132 
   1   420   1     0     4     4  0.933      0.933      0.0008132 
   1   421   1     0     4     4  0.934      0.934      0.0008132 
   1   422   1     0     5     5  0.935      0.935      0.0008132 
   1   423   1     0     4     4  0.936      0.936      0.0008132 
   1   424   1     0     5     5  0.937      0.937      0.0008132 
   1   425   1     0     4     4  0.937      0.937      0.0008132 
   1   426   1     0     5     5  0.938      0.938      0.0008132 
   1   427   1     0     4     4  0.939      0.939      0.0008132 
   1   428   1     0     4     4  0.940      0.940      0.0008132 
   1   429   1     0     4     4  0.941      0.941      0.0008132 
   1   430   1     0     4     4  0.941      0.941      0.0008132 
   1   431   1     0     5     5  0.942      0.942      0.0009759 
   1   432   1     0     4     4  0.943      0.943      0.0009759 
   1   433   1     0     4     4  0.944      0.944      0.0009759 
   1   434   1     0     6     6  0.945      0.945      0.001135  
   1   435   1     0     6     6  0.947      0.947      0.001135  
   1   436   1     0     5     5  0.948      0.948      0.001135  
   1   437   1     0     4     4  0.949      0.949      0.001135  
   1   438   1     0     5     5  0.950      0.950      0.001135  
   1   439   1     0     6     6  0.951      0.951      0.001135  
   1   440   1     0     7     7  0.952      0.952      0.001135  
   1   441   1     0     7     7  0.953      0.953      0.001135  
   1   442   1     0     7     7  0.955      0.955      0.001135  
   1   443   1U    0     7     7  0.955      0.955      0.001135  
   1   443   2     0     4     4  0.955      0.955      0.0007709 
   1   444   1     0     4     4  0.956      0.956      0.0007709 
   1   445   1     0     4     4  0.957      0.957      0.0007709 
   1   446   1U    0     5     5  0.957      0.957      0.0009099 
   1   446   2     0     3     3  0.958      0.958      0.0006954 
   1   447   1     0     4     4  0.958      0.958      0.0006954 
   1   448   1     0     4     4  0.959      0.959      0.0006954 
   1   449   1     0     4     4  0.960      0.960      0.0006954 
   1   450   1     0     4     4  0.960      0.960      0.0006954 
   1   451   1     0     3     3  0.961      0.961      0.0006954 
   1   452   1     0     4     4  0.962      0.962      0.0006954 
   1   453   1     0     3     3  0.962      0.962      0.0006954 
   1   454   1     0     4     4  0.963      0.963      0.0006954 
   1   455   1     0     4     4  0.964      0.964      0.0006954 
   1   456   1     0     3     3  0.965      0.965      0.0007652 
   1   457   1     0     4     4  0.965      0.965      0.0007652 
   1   458   1     0     4     4  0.966      0.966      0.0007652 
   1   459   1     0     4     4  0.967      0.967      0.0007652 
   1   460   1     0     4     4  0.968      0.968      0.0007652 
   1   461   1     0     4     4  0.968      0.968      0.0007652 
   1   462   1     0     3     3  0.969      0.969      0.0007652 
   1   463   1     0     4     4  0.970      0.970      0.0008936 
   1   464   1     0     4     4  0.971      0.971      0.0008936 
   1   465   1     0     4     4  0.972      0.972      0.0008936 
   1   466   1     0     4     4  0.973      0.973      0.0008936 
   1   467   1     0     4     4  0.974      0.974      0.001035  
   1   468   1     0     4     4  0.975      0.975      0.001035  
   1   469   1     0     4     4  0.976      0.976      0.001035  
   1   470   1     0     4     4  0.977      0.977      0.001035  
   1   471   1     0     5     5  0.978      0.978      0.001293  
   1   472   1     0     5     5  0.979      0.979      0.001293  
   1   473   1     0     4     4  0.981      0.981      0.001293  
   1   474   1     0     4     4  0.982      0.982      0.001293  
   1   475   1     0     4     4  0.984      0.984      0.001617  
   1   476   1     0     6     6  0.986      0.986      0.002021  
   1   477   1U    0     4     4  0.986      0.986      0.002021  
   1   477   2     0     2     2  0.986      0.986      0.0005052 
   1   478   1     0     2     2  0.987      0.987      0.0005052 
   1   479   1     0     3     3  0.987      0.987      0.0006315 
   1   480   1     0     3     3  0.988      0.988      0.0007894 
   1   481   1     0     3     3  0.989      0.989      0.0009867 
   1   482   1     0     4     4  0.990      0.990      0.001233  
   1   483   1U    0     6     6  0.990      0.990      0.001535  
   1   483   2     0     4     4  0.991      0.991      0.001076  
   1   484   1     0     4     4  0.992      0.992      0.001076  
   1   485   1     0     5     5  0.994      0.994      0.001076  
   1   486   1     0     7     7  0.995      0.995      0.001076  
   1   487   1     0    10    10  0.996      0.996      0.001076  
   1   488   1U    0     6     6  0.996      0.996      0.001076  
   1   488   2     0     4     4  0.996      0.996      0.0007496 
   1   489   1     0     5     5  0.997      0.997      0.0007496 
   1   490   1     0     4     4  0.998      0.998      0.0007496 
   1   491   1     0     5     5  0.999      0.999      0.0007496 
   1   492   1     0     5     5  0.999      0.999      0.0007496 
   1   493   1     0     4     4  1.00       1.00       0.0005482 
   2     1   1U    0     4     4  1.00       0.00       1.000     
   2     1   2U    0     4     4  1.00       0.00       0.2500    
   2     1   3U    0     7     7  1.00       0.00       0.06250   
   2     1   4U    0     6     6  1.00       0.00       0.01562   
   2     1   5U    0     4     4  1.00       0.00       0.003906  
                          
 THE ANALYSIS HAS NOT BEEN COMPLETED
