*Heading
** Job name: Explicit_2 Model name: Box_Implicit_Explicit
** Generated by: Abaqus/CAE 2022
*Preprint, echo=NO, model=NO, history=NO, contact=NO
**
** PARTS
**
*Part, name=Part-1
*Node
      1,         32.5,         32.5,           0.
      2,         32.5,          65.,           0.
      3,           0.,          65.,           0.
      4,           0.,         32.5,           0.
      5,          65.,         32.5,           0.
      6,          65.,          65.,           0.
      7,         32.5,           0.,           0.
      8,           0.,           0.,           0.
      9,          65.,           0.,           0.
     10,         32.5,          39.,           0.
     11,         32.5,         45.5,           0.
     12,         32.5,          52.,           0.
     13,         32.5,         58.5,           0.
     14,          26.,          65.,           0.
     15,         19.5,          65.,           0.
     16,          13.,          65.,           0.
     17,          6.5,          65.,           0.
     18,           0.,         58.5,           0.
     19,           0.,          52.,           0.
     20,           0.,         45.5,           0.
** ... 101 like lines cut
*Element, type=S4
 1,  1, 10, 58, 25
 2, 10, 11, 59, 58
 3, 11, 12, 60, 59
 4, 12, 13, 61, 60
 5, 13,  2, 14, 61
 6, 25, 58, 62, 24
 7, 58, 59, 63, 62
 8, 59, 60, 64, 63
 9, 60, 61, 65, 64
10, 61, 14, 15, 65
11, 24, 62, 66, 23
12, 62, 63, 67, 66
13, 63, 64, 68, 67
14, 64, 65, 69, 68
15, 65, 15, 16, 69
16, 23, 66, 70, 22
17, 66, 67, 71, 70
18, 67, 68, 72, 71
19, 68, 69, 73, 72
20, 69, 16, 17, 73
** ... 80 like lines cut
*Nset, nset=Set-2, generate
   1,  121,    1
*Elset, elset=Set-2, generate
   1,  100,    1
** Section: Paper_Shell
*Shell Section, elset=Set-2, material=Paper_Material
0.6, 5
*End Part
**  
*Part, name=Part-2
*Node
      1,         32.5,         32.5,           0.
      2,         32.5,          65.,           0.
      3,           0.,          65.,           0.
      4,           0.,         32.5,           0.
      5,          65.,         32.5,           0.
      6,          65.,          65.,           0.
      7,         32.5,           0.,           0.
      8,           0.,           0.,           0.
      9,          65.,           0.,           0.
     10,         32.5,          39.,           0.
     11,         32.5,         45.5,           0.
     12,         32.5,          52.,           0.
     13,         32.5,         58.5,           0.
     14,          26.,          65.,           0.
     15,         19.5,          65.,           0.
     16,          13.,          65.,           0.
     17,          6.5,          65.,           0.
     18,           0.,         58.5,           0.
     19,           0.,          52.,           0.
     20,           0.,         45.5,           0.
** ... 101 like lines cut
*Element, type=S4R
 1,  1, 10, 58, 25
 2, 10, 11, 59, 58
 3, 11, 12, 60, 59
 4, 12, 13, 61, 60
 5, 13,  2, 14, 61
 6, 25, 58, 62, 24
 7, 58, 59, 63, 62
 8, 59, 60, 64, 63
 9, 60, 61, 65, 64
10, 61, 14, 15, 65
11, 24, 62, 66, 23
12, 62, 63, 67, 66
13, 63, 64, 68, 67
14, 64, 65, 69, 68
15, 65, 15, 16, 69
16, 23, 66, 70, 22
17, 66, 67, 71, 70
18, 67, 68, 72, 71
19, 68, 69, 73, 72
20, 69, 16, 17, 73
** ... 80 like lines cut
*Nset, nset=Set-2, generate
   1,  121,    1
*Elset, elset=Set-2, generate
   1,  100,    1
** Section: Paper_Shell
*Shell Section, elset=Set-2, material=Paper_Material
0.6, 5
*End Part
**  
*Part, name=Part-3
*End Part
**  
**
** ASSEMBLY
**
*Assembly, name=Assembly
**  
*Instance, name=Part-1-1, part=Part-1
19.0380592228744,           0., 45.9619407771256
19.0380592228744,           0., 45.9619407771256, 19.0380592228744, 1.0000000139546, 45.9619407771256, 45.0000000171299
*End Instance
**  
*Instance, name=Part-2-1, part=Part-2
         65.,           0.,           0.
         65.,           0.,           0.,          65., -1.0000000139546,           0., 45.0000000171299
*End Instance
**  
*Instance, name=Part-1-2, part=Part-1
   19.038059,           0.,    45.961941
   19.038059,           0.,    45.961941,    19.038059, -1.0000000139546,    45.961941, 45.0000000171299
*End Instance
**  
*Instance, name=Part-1-3, part=Part-1
  110.961941,           0.,    45.961941
  110.961941,           0.,    45.961941,   110.961941, 0.999999990362471,    45.961941, 225.000000192033
*End Instance
**  
*Instance, name=Part-3-1, part=Part-3
        -35.,        -67.5,          -1.
*Node
      1,           0.,           0.,           0.
      2,          20.,           0.,           0.
      3,          40.,           0.,           0.
      4,          60.,           0.,           0.
      5,          80.,           0.,           0.
      6,         100.,           0.,           0.
      7,         120.,           0.,           0.
      8,         140.,           0.,           0.
      9,         160.,           0.,           0.
     10,         180.,           0.,           0.
     11,         200.,           0.,           0.
     12,           0.,          20.,           0.
     13,          20.,          20.,           0.
     14,          40.,          20.,           0.
     15,          60.,          20.,           0.
     16,          80.,          20.,           0.
     17,         100.,          20.,           0.
     18,         120.,          20.,           0.
     19,         140.,          20.,           0.
     20,         160.,          20.,           0.
** ... 101 like lines cut
*Element, type=R3D4
  1,   1,   2,  13,  12
  2,   2,   3,  14,  13
  3,   3,   4,  15,  14
  4,   4,   5,  16,  15
  5,   5,   6,  17,  16
  6,   6,   7,  18,  17
  7,   7,   8,  19,  18
  8,   8,   9,  20,  19
  9,   9,  10,  21,  20
 10,  10,  11,  22,  21
 11,  12,  13,  24,  23
 12,  13,  14,  25,  24
 13,  14,  15,  26,  25
 14,  15,  16,  27,  26
 15,  16,  17,  28,  27
 16,  17,  18,  29,  28
 17,  18,  19,  30,  29
 18,  19,  20,  31,  30
 19,  20,  21,  32,  31
 20,  21,  22,  33,  32
** ... 80 like lines cut
*Node
    122,           0.,           0.,           0.
*Nset, nset=Part-3-1-RefPt_, internal
122, 
*Elset, elset=Part-3-1, generate
   1,  100,    1
*End Instance
**  
*Element, type=CONN3D2
1, Part-1-3.4, Part-1-2.4
*Connector Section, elset=Wire-1-Set-3, behavior=ConnSect-2
Axial,
"Datum csys-2",
*Nset, nset=Hinge-1-1, instance=Part-2-1
  3,  4,  8, 18, 19, 20, 21, 42, 43, 44, 45
*Elset, elset=Hinge-1-1, instance=Part-2-1
 21, 22, 23, 24, 25, 71, 72, 73, 74, 75
*Nset, nset=Hinge-1-2, instance=Part-1-1
  5,  6,  9, 30, 31, 32, 33, 54, 55, 56, 57
*Elset, elset=Hinge-1-2, instance=Part-1-1
  46,  47,  48,  49,  50,  96,  97,  98,  99, 100
*Nset, nset=Hinge-2-1, instance=Part-2-1
  5,  6,  9, 30, 31, 32, 33, 54, 55, 56, 57
*Elset, elset=Hinge-2-1, instance=Part-2-1
  46,  47,  48,  49,  50,  96,  97,  98,  99, 100
*Nset, nset=Hinge-2-3, instance=Part-1-3
  3,  4,  8, 18, 19, 20, 21, 42, 43, 44, 45
*Elset, elset=Hinge-2-3, instance=Part-1-3
 21, 22, 23, 24, 25, 71, 72, 73, 74, 75
*Nset, nset=Hinge-3-2, instance=Part-1-1
  3,  4,  8, 18, 19, 20, 21, 42, 43, 44, 45
*Elset, elset=Hinge-3-2, instance=Part-1-1
 21, 22, 23, 24, 25, 71, 72, 73, 74, 75
*Nset, nset=Hinge-3-4, instance=Part-1-2
  3,  4,  8, 18, 19, 20, 21, 42, 43, 44, 45
*Elset, elset=Hinge-3-4, instance=Part-1-2
 21, 22, 23, 24, 25, 71, 72, 73, 74, 75
*Nset, nset=Hinge-4-3, instance=Part-1-3
  5,  6,  9, 30, 31, 32, 33, 54, 55, 56, 57
*Elset, elset=Hinge-4-3, instance=Part-1-3
  46,  47,  48,  49,  50,  96,  97,  98,  99, 100
*Nset, nset=Hinge-4-4, instance=Part-1-2
  5,  6,  9, 30, 31, 32, 33, 54, 55, 56, 57
*Elset, elset=Hinge-4-4, instance=Part-1-2
  46,  47,  48,  49,  50,  96,  97,  98,  99, 100
*Nset, nset=Set-42, instance=Part-3-1, generate
   1,  121,    1
*Elset, elset=Set-42, instance=Part-3-1, generate
   1,  100,    1
*Nset, nset=Set-45, instance=Part-3-1
 122,
*Nset, nset=Set-46, instance=Part-2-1
  3,  4,  8, 18, 19, 20, 21, 42, 43, 44, 45
*Elset, elset=Set-46, instance=Part-2-1
 21, 22, 23, 24, 25, 71, 72, 73, 74, 75
*Nset, nset=Vertex, instance=Part-1-3
 6,
*Nset, nset=Wire-1-Set-3, instance=Part-1-3
 4,
*Nset, nset=Wire-1-Set-3, instance=Part-1-2
 4,
*Elset, elset=Wire-1-Set-3
 1,
*Surface, type=NODE, name=Hinge-1-1_CNS_, internal
Hinge-1-1, 1.
*Surface, type=NODE, name=Hinge-1-2_CNS_, internal
Hinge-1-2, 1.
*Surface, type=NODE, name=Hinge-2-1_CNS_, internal
Hinge-2-1, 1.
*Surface, type=NODE, name=Hinge-2-3_CNS_, internal
Hinge-2-3, 1.
*Surface, type=NODE, name=Hinge-3-2_CNS_, internal
Hinge-3-2, 1.
*Surface, type=NODE, name=Hinge-3-4_CNS_, internal
Hinge-3-4, 1.
*Surface, type=NODE, name=Hinge-4-3_CNS_, internal
Hinge-4-3, 1.
*Surface, type=NODE, name=Hinge-4-4_CNS_, internal
Hinge-4-4, 1.
*Rigid Body, ref node=Part-3-1.Part-3-1-RefPt_, elset=Part-3-1.Part-3-1
*Orientation, name="Datum csys-2"
         -1.,           0.,           0.,           0.,           1.,           0.
1, 0.
** Constraint: Hinge1
*Tie, name=Hinge1, adjust=yes, no rotation
Hinge-1-2_CNS_, Hinge-1-1_CNS_
** Constraint: Hinge2
*Tie, name=Hinge2, adjust=yes, no rotation
Hinge-2-3_CNS_, Hinge-2-1_CNS_
** Constraint: Hinge3
*Tie, name=Hinge3, adjust=yes, no rotation
Hinge-3-4_CNS_, Hinge-3-2_CNS_
** Constraint: Hinge4
*Tie, name=Hinge4, adjust=yes, no rotation
Hinge-4-4_CNS_, Hinge-4-3_CNS_
*End Assembly
*Connector Behavior, name=ConnSect-2
*Connector Constitutive Reference
91.92, , , , , 
*Connector Elasticity, component=1
 0.7871,
*Amplitude, name=Amp-1, definition=SMOOTH STEP
             0.,              0.,              1.,              1.
*Amplitude, name=Amp-2, definition=EQUALLY SPACED, fixed interval=1.
             0.,              1.
** 
** MATERIALS
** 
*Material, name=Paper_Material
*Density
 8e-10,
*Elastic
2000., 0.3
** 
** INTERACTION PROPERTIES
** 
*Surface Interaction, name=IntProp-1
*Friction, rough
** 
** BOUNDARY CONDITIONS
** 
** Name: BC-3 Type: Symmetry/Antisymmetry/Encastre
*Boundary
Set-42, ENCASTRE
** Name: BC-4 Type: Symmetry/Antisymmetry/Encastre
*Boundary
Set-45, ENCASTRE
** ----------------------------------------------------------------
** 
** STEP: Loading
** 
*Step, name=Loading, nlgeom=YES
*Dynamic, Explicit
, 1.
*Bulk Viscosity
0.06, 1.2
** 
** BOUNDARY CONDITIONS
** 
** Name: Disp_loading Type: Displacement/Rotation
*Boundary, amplitude=Amp-2
Hinge-4-3, 3, 3, -80.
** 
** LOADS
** 
** Name: Load-1   Type: Gravity
*Dload
, GRAV, 9810., 0., 0., -1.
** 
** INTERACTIONS
** 
** Interaction: General_Contact
*Contact, op=NEW
*Contact Inclusions, ALL EXTERIOR
*Contact Property Assignment
 ,  , IntProp-1
** 
** OUTPUT REQUESTS
** 
*Restart, write, number interval=1, time marks=NO
** 
** FIELD OUTPUT: F-Output-1
** 
*Output, field
*Node Output
A, U, V
*Element Output, directions=YES
LE, PE, PEEQ, PEEQVAVG, PEVAVG, S, SVAVG
** 
** HISTORY OUTPUT: H-Output-1
** 
*Output, history, variable=PRESELECT
*End Step
** ----------------------------------------------------------------
** 
** STEP: Release
** 
*Step, name=Release, nlgeom=YES
*Dynamic, Explicit
, 1.
*Bulk Viscosity
0.06, 1.2
** 
** BOUNDARY CONDITIONS
** 
** Name: BC-3 Type: Symmetry/Antisymmetry/Encastre
*Boundary, op=NEW
Set-42, ENCASTRE
** Name: BC-4 Type: Symmetry/Antisymmetry/Encastre
*Boundary, op=NEW
Set-45, ENCASTRE
** Name: Disp_loading Type: Displacement/Rotation
*Boundary, op=NEW
** 
** OUTPUT REQUESTS
** 
*Restart, write, number interval=1, time marks=NO
** 
** FIELD OUTPUT: F-Output-1
** 
*Output, field
*Node Output
A, U, V
*Element Output, directions=YES
LE, PE, PEEQ, PEEQVAVG, PEVAVG, S, SVAVG
** 
** HISTORY OUTPUT: H-Output-1
** 
*Output, history, variable=PRESELECT
*End Step
