*Heading
** Job name: Try_New_1 Model name: Model-2
** Generated by: Abaqus/CAE 2022
*Preprint, echo=NO, model=NO, history=NO, contact=NO
**
** PARTS
**
*Part, name=Part-1
*Node
      1,           0.,           0.,           0.
      2,          6.5,           0.,           0.
      3,          13.,           0.,           0.
      4,         19.5,           0.,           0.
      5,          26.,           0.,           0.
      6,         32.5,           0.,           0.
      7,          39.,           0.,           0.
      8,         45.5,           0.,           0.
      9,          52.,           0.,           0.
     10,         58.5,           0.,           0.
     11,          65.,           0.,           0.
     12,           0.,          6.5,           0.
     13,          6.5,          6.5,           0.
     14,          13.,          6.5,           0.
     15,         19.5,          6.5,           0.
     16,          26.,          6.5,           0.
     17,         32.5,          6.5,           0.
     18,          39.,          6.5,           0.
     19,         45.5,          6.5,           0.
     20,          52.,          6.5,           0.
** ... 101 like lines cut
*Element, type=S4R
  1,   1,   2,  13,  12
  2,   2,   3,  14,  13
  3,   3,   4,  15,  14
  4,   4,   5,  16,  15
  5,   5,   6,  17,  16
  6,   6,   7,  18,  17
  7,   7,   8,  19,  18
  8,   8,   9,  20,  19
  9,   9,  10,  21,  20
 10,  10,  11,  22,  21
 11,  12,  13,  24,  23
 12,  13,  14,  25,  24
 13,  14,  15,  26,  25
 14,  15,  16,  27,  26
 15,  16,  17,  28,  27
 16,  17,  18,  29,  28
 17,  18,  19,  30,  29
 18,  19,  20,  31,  30
 19,  20,  21,  32,  31
 20,  21,  22,  33,  32
** ... 80 like lines cut
*Nset, nset=Set-2, generate
   1,  121,    1
*Elset, elset=Set-2, generate
   1,  100,    1
** Section: Paper_Shell
*Shell Section, elset=Set-2, material=Paper_Material
0.3, 5
*End Part
**  
*Part, name=Part-2
*Node
      1,           0.,           0.,           0.
      2,          6.5,           0.,           0.
      3,          13.,           0.,           0.
      4,         19.5,           0.,           0.
      5,          26.,           0.,           0.
      6,         32.5,           0.,           0.
      7,          39.,           0.,           0.
      8,         45.5,           0.,           0.
      9,          52.,           0.,           0.
     10,         58.5,           0.,           0.
     11,          65.,           0.,           0.
     12,           0.,          6.5,           0.
     13,          6.5,          6.5,           0.
     14,          13.,          6.5,           0.
     15,         19.5,          6.5,           0.
     16,          26.,          6.5,           0.
     17,         32.5,          6.5,           0.
     18,          39.,          6.5,           0.
     19,         45.5,          6.5,           0.
     20,          52.,          6.5,           0.
** ... 101 like lines cut
*Element, type=S4R
  1,   1,   2,  13,  12
  2,   2,   3,  14,  13
  3,   3,   4,  15,  14
  4,   4,   5,  16,  15
  5,   5,   6,  17,  16
  6,   6,   7,  18,  17
  7,   7,   8,  19,  18
  8,   8,   9,  20,  19
  9,   9,  10,  21,  20
 10,  10,  11,  22,  21
 11,  12,  13,  24,  23
 12,  13,  14,  25,  24
 13,  14,  15,  26,  25
 14,  15,  16,  27,  26
 15,  16,  17,  28,  27
 16,  17,  18,  29,  28
 17,  18,  19,  30,  29
 18,  19,  20,  31,  30
 19,  20,  21,  32,  31
 20,  21,  22,  33,  32
** ... 80 like lines cut
*Nset, nset=Set-2, generate
   1,  121,    1
*Elset, elset=Set-2, generate
   1,  100,    1
** Section: Paper_Shell
*Shell Section, elset=Set-2, material=Paper_Material
0.3, 5
*End Part
**  
**
** ASSEMBLY
**
*Assembly, name=Assembly
**  
*Instance, name=Part-1-1, part=Part-1
*End Instance
**  
*Instance, name=Part-2-1, part=Part-2
         65.,           0.,           0.
*End Instance
**  
*Node
      1,          65.,           0.,           0.
*Node
      2,          65.,          65.,           0.
*Element, type=CONN3D2
1, 1, 2
*Connector Section, elset=Wire-1-Set-1
Hinge,
"Datum csys-2", "Datum csys-3"
*Nset, nset=Plate_1, instance=Part-1-1, generate
   1,  121,    1
*Elset, elset=Plate_1, instance=Part-1-1, generate
   1,  100,    1
*Nset, nset=RF_Set
 1,
*Nset, nset=Set-4, instance=Part-1-1, generate
   1,  111,   11
*Elset, elset=Set-4, instance=Part-1-1, generate
  1,  91,  10
*Nset, nset=Set-5
 2,
*Nset, nset=Set-6
 2,
*Nset, nset=Set-7
 1,
*Nset, nset=Set-8
 2,
*Nset, nset=Set-9
 1,
*Nset, nset=Set-10
 1, 2
*Nset, nset=Set-11, instance=Part-1-1, generate
  11,  121,   11
*Elset, elset=Set-11, instance=Part-1-1, generate
  10,  100,   10
*Nset, nset=Set-12, instance=Part-1-1, generate
   1,  121,    1
*Elset, elset=Set-12, instance=Part-1-1, generate
   1,  100,    1
*Nset, nset=Set-13, instance=Part-2-1, generate
  11,  121,   11
*Elset, elset=Set-13, instance=Part-2-1, generate
  10,  100,   10
*Nset, nset=Set-16, instance=Part-2-1
  11, 121
*Nset, nset=Set-17, instance=Part-2-1, generate
  11,  121,   11
*Elset, elset=Set-17, instance=Part-2-1, generate
  10,  100,   10
*Nset, nset=Set-18
 1, 2
*Nset, nset=Wire-1-Set-1
 1, 2
*Elset, elset=Wire-1-Set-1
 1,
*Nset, nset=m_Set-14
 1,
*Nset, nset=s_Set-14, instance=Part-2-1, generate
   1,  121,    1
*Elset, elset=s_Set-14, instance=Part-2-1, generate
   1,  100,    1
*Orientation, name="Datum csys-2"
          0.,           1.,           0.,          -1.,           0.,           0.
1, 0.
*Orientation, name="Datum csys-3"
          0.,          -1.,           0.,          -1.,           0.,           0.
1, 0.
*End Assembly
*Amplitude, name=Amp-1, definition=SMOOTH STEP
             0.,              0.,              1.,              1.
** 
** MATERIALS
** 
*Material, name=Paper_Material
*Density
 8e-10,
*Elastic
2000., 0.3
** 
** BOUNDARY CONDITIONS
** 
** Name: BC-3 Type: Displacement/Rotation
*Boundary
Set-12, 1, 1
Set-12, 2, 2
Set-12, 3, 3
** ----------------------------------------------------------------
** 
** STEP: Step-1
** 
*Step, name=Step-1, nlgeom=YES
*Dynamic, Explicit
, 1.
*Bulk Viscosity
0.06, 1.2
** 
** BOUNDARY CONDITIONS
** 
** Name: BC-2 Type: Displacement/Rotation
*Boundary, amplitude=Amp-1
Set-17, 3, 3, -5.
** Name: BC-4 Type: Symmetry/Antisymmetry/Encastre
*Boundary
Set-18, ENCASTRE
** 
** OUTPUT REQUESTS
** 
*Restart, write, number interval=1, time marks=NO
** 
** FIELD OUTPUT: F-Output-1
** 
*Output, field, variable=PRESELECT
** 
** HISTORY OUTPUT: H-Output-1
** 
*Output, history, variable=PRESELECT
*End Step
